Infrared Spectrum: N-HEPTANE
Formula: C7H16
CAS: 142-82-5
State: LIQUID (NEAT)
Class: COBLENTZ III
Instrument: DOW KBr FOREPRISM-GRATING
Instrument parameters: BLAZED AT 3.5, 12.0, 20.0 MICRON, CHANGED AT 5.0, 7.5, 14.9 MICRON
Sampling: TRANSMISSION
Path length: 0.011 CM
Resolution: 4
Origin: DOW CHEMICAL COMPANY
1/CM	TRANSMITTANCE
446.062	0.9
454.753	0.908
463.444	0.918
472.135	0.925
480.826	0.926
489.517	0.938
498.208	0.953
506.899	0.963
515.59	0.974
524.281	0.979
532.972	0.986
541.663	0.993
550.354	0.998
559.044	1
567.735	1
576.426	0.997
585.117	0.997
593.808	1
602.499	0.997
611.19	1
619.881	1.005
628.572	1.001
637.263	1
645.954	0.998
654.645	0.998
663.336	0.987
672.027	0.985
680.718	0.978
689.409	0.949
698.1	0.894
706.791	0.745
715.482	0.315
724.173	0.16
732.864	0.485
741.555	0.514
750.246	0.648
758.937	0.747
767.628	0.567
776.319	0.547
785.009	0.73
793.7	0.907
802.391	0.934
811.082	0.942
819.773	0.923
828.464	0.855
837.155	0.876
845.846	0.892
854.537	0.865
863.228	0.816
871.919	0.816
880.61	0.826
889.301	0.805
897.992	0.6519
906.683	0.739
915.374	0.815
924.065	0.739
932.756	0.516
941.447	0.692
950.138	0.754
958.829	0.771
967.52	0.858
976.211	0.925
984.902	0.908
993.593	0.898
1002.28	0.889
1010.97	0.862
1019.67	0.786
1028.36	0.834
1037.05	0.86
1045.74	0.82
1054.43	0.811
1063.12	0.754
1071.81	0.658
1080.5	0.668
1089.19	0.841
1097.88	0.915
1106.58	0.936
1115.27	0.938
1123.96	0.9
1132.65	0.7399
1141.34	0.69
1150.03	0.813
1158.72	0.85
1167.41	0.861
1176.1	0.911
1184.79	0.922
1193.48	0.899
1202.18	0.832
1210.87	0.82
1219.56	0.864
1228.25	0.85
1236.94	0.737
1245.63	0.822
1254.32	0.827
1263.01	0.786
1271.7	0.711
1280.39	0.62
1289.09	0.676
1297.78	0.633
1306.47	0.547
1315.16	0.63
1323.85	0.698
1332.54	0.61
1341.23	0.4059
1349.92	0.498
1358.61	0.505
1367.3	0.3999
1375.99	0.0949
1384.69	0.0331
1393.38	0.3641
1402.07	0.493
1410.76	0.494
1419.45	0.444
1428.14	0.334
1436.83	0.12
1445.52	0.028
1454.21	0.005
1462.9	0.005
1471.6	0.008
1480.29	0.0391
1488.98	0.2901
1497.67	0.46
1506.36	0.57
1515.05	0.65
1523.74	0.709
1532.43	0.747
1541.12	0.785
1549.81	0.819
1558.5	0.85
1567.2	0.868
1575.89	0.88
1584.58	0.885
1593.27	0.891
1601.96	0.899
1610.65	0.906
1619.34	0.911
1628.03	0.911
1636.72	0.906
1645.41	0.91
1654.11	0.913
1662.8	0.919
1671.49	0.923
1680.18	0.93
1688.87	0.938
1697.56	0.945
1706.25	0.96
1714.94	0.971
1723.63	0.978
1732.32	0.979
1741.02	0.979
1749.71	0.978
1758.4	0.979
1767.09	0.98
1775.78	0.985
1784.47	0.989
1793.16	0.994
1801.85	0.994
1810.54	0.997
1819.23	1.002
1827.92	1.002
1836.62	1.004
1845.31	1.001
1854	0.993
1862.69	0.993
1871.38	0.991
1880.07	0.985
1888.76	0.98
1897.45	0.985
1906.14	0.994
1914.83	0.997
1923.53	0.993
1932.22	0.993
1940.91	0.994
1949.6	0.991
1958.29	0.99
1966.98	0.998
1975.67	0.998
1984.36	0.995
1993.05	0.997
2001.74	0.993
2010.43	0.985
2019.13	0.967
2027.82	0.952
2036.51	0.961
2045.2	0.9709
2053.89	0.976
2062.58	0.982
2071.27	0.985
2079.96	0.985
2088.65	0.982
2097.34	0.98
2106.04	0.979
2114.73	0.979
2123.42	0.976
2132.11	0.976
2140.8	0.974
2149.49	0.956
2158.18	0.948
2166.87	0.949
2175.56	0.9491
2184.25	0.948
2192.95	0.947
2201.64	0.947
2210.33	0.941
2219.02	0.937
2227.71	0.938
2236.4	0.941
2245.09	0.947
2253.78	0.951
2262.47	0.9492
2271.16	0.9413
2279.85	0.9331
2288.55	0.927
2297.24	0.923
2305.93	0.9181
2314.62	0.9131
2323.31	0.9071
2332	0.8923
2340.69	0.8959
2349.38	0.891
2358.07	0.891
2366.76	0.888
2375.46	0.8919
2384.15	0.894
2392.84	0.8881
2401.53	0.8919
2410.22	0.9109
2418.91	0.922
2427.6	0.9299
2436.29	0.9357
2444.98	0.9417
2453.67	0.945
2462.36	0.944
2471.06	0.945
2479.75	0.945
2488.44	0.9375
2497.13	0.9305
2505.82	0.9225
2514.51	0.9081
2523.2	0.8983
2531.89	0.8842
2540.58	0.8888
2549.27	0.892
2557.97	0.8873
2566.66	0.8523
2575.35	0.8043
2584.04	0.7774
2592.73	0.7516
2601.42	0.7074
2610.11	0.7086
2618.8	0.709
2627.49	0.6993
2636.18	0.6792
2644.88	0.682
2653.57	0.6758
2662.26	0.5969
2670.95	0.509
2679.64	0.5661
2688.33	0.6445
2697.02	0.667
2705.71	0.6553
2714.4	0.6122
2723.09	0.5122
2731.78	0.4088
2740.48	0.4679
2749.17	0.5311
2757.86	0.538
2766.55	0.5282
2775.24	0.4779
2783.93	0.4076
2792.62	0.326
2801.31	0.2375
2810	0.1496
2818.69	0.0848
2827.39	0.0328
2836.08	0.0005
2844.77	0
2853.46	0
2862.15	0
2870.84	0
2879.53	0
2888.22	0
2896.91	0
2905.6	0
2914.29	0
2922.99	0
2931.68	0
2940.37	0
2949.06	0
2957.75	0.0007
2966.44	0.001
2975.13	0.001
2983.82	0.0054
2992.51	0.0195
3001.2	0.0566
3009.9	0.1523
3018.59	0.2206
3027.28	0.3015
3035.97	0.3624
3044.66	0.4258
3053.35	0.4887
3062.04	0.545
3070.73	0.5939
3079.42	0.646
3088.11	0.6836
3096.81	0.709
3105.5	0.731
3114.19	0.7503
3122.88	0.7653
3131.57	0.77
3140.26	0.767
3148.95	0.7634
3157.64	0.76
3166.33	0.759
3175.02	0.759
3183.71	0.7613
3192.41	0.7671
3201.1	0.7861
3209.79	0.8222
3218.48	0.8618
3227.17	0.8908
3235.86	0.9106
3244.55	0.9242
3253.24	0.9296
3261.93	0.9326
3270.62	0.9366
3279.32	0.9416
3288.01	0.945
3296.7	0.945
3305.39	0.944
3314.08	0.942
3322.77	0.944
3331.46	0.944
3340.15	0.938
3348.84	0.937
3357.53	0.933
3366.22	0.934
3374.92	0.937
3383.61	0.9391
3392.3	0.941
3400.99	0.944
3409.68	0.947
3418.37	0.953
3427.06	0.956
3435.75	0.9606
3444.44	0.963
3453.13	0.9665
3461.83	0.97
3470.52	0.9755
3479.21	0.979
3487.9	0.983
3496.59	0.985
3505.28	0.9865
3513.97	0.989
3522.66	0.99
3531.35	0.99
3540.04	0.991
3548.73	0.991
3557.43	0.987
3566.12	0.985
3574.81	0.9785
3583.5	0.9735
3592.19	0.965
3600.88	0.9465
3609.57	0.932
3618.26	0.932
3626.95	0.931
3635.64	0.93
3644.34	0.9335
3653.03	0.9325
3661.72	0.931
3670.41	0.927
3679.1	0.927
3687.79	0.931
3696.48	0.9409
3705.17	0.9475
3713.86	0.9426
3722.55	0.9325
3731.25	0.929
3739.94	0.927
3748.63	0.927
3757.32	0.929
3766.01	0.929
3774.7	0.932
3783.39	0.932
