Infrared Spectrum: Water
Formula: H2O
CAS: 7732-18-5
State: gas
Origin: Sadtler Research Labs Under US-EPA Contract
1/CM	ABSORBANCE
450	0.0060948
462	0.109895
474	0.195536
486	0.105685
498	0.039522
510	0.098585
522	0.0816829
534	0.0360033
546	0.0849502
558	0.03349
570	0.0565497
582	0.0859555
594	0.0319192
606	0.0378255
618	0.0321705
630	0.0218659
642	0.0483186
654	0.023688
666	0.0133834
678	0.0285262
690	0.0354378
702	0.0297828
714	0.0256987
726	0.0192269
738	0.0234367
750	0.0194782
762	0.0151428
774	0.0248819
786	0.0148286
798	0.028589
810	0.029343
822	0.0160852
834	0.0213632
846	0.0219287
858	0.0150171
870	0.023311
882	0.0204836
894	0.0194782
906	0.027835
918	0.0192269
930	0.0197296
942	0.023688
954	0.0162737
966	0.0231225
978	0.0254474
990	0.0189127
1002	0.0248819
1014	0.0231225
1026	0.0162109
1038	0.025196
1050	0.0205464
1062	0.0223685
1074	0.0279607
1086	0.0196039
1098	0.023311
1110	0.0251332
1122	0.0177189
1134	0.025196
1146	0.0258244
1158	0.0212376
1170	0.0287147
1182	0.023688
1194	0.0187242
1206	0.0265784
1218	0.0223057
1230	0.0228084
1242	0.0388936
1254	0.0204836
1266	0.0434804
1278	0.0311652
1290	0.054162
1302	0.0327988
1314	0.0954433
1326	0.0426008
1338	0.231602
1350	0.0496381
1362	0.180456
1374	0.195222
1386	0.14948
1398	0.279921
1410	0.158653
1422	0.16833
1434	0.265218
1446	0.0848245
1458	0.469991
1470	0.144076
1482	0.0449884
1494	0.170152
1506	0.472693
1518	0.448816
1530	0.352682
1542	0.600683
1554	0.265972
1566	0.136662
1578	0.12397
1590	0.0800492
1602	0.0280864
1614	0.0621418
1626	0.246682
1638	0.245803
1650	0.422678
1662	0.115236
1674	0.344576
1686	0.42362
1698	0.467729
1710	0.121268
1722	0.171408
1734	0.45711
1746	0.276402
1758	0.191138
1770	0.245677
1782	0.159721
1794	0.218031
1806	0.0746456
1818	0.0510832
1830	0.184415
1842	0.139866
1854	0.0187242
1866	0.108324
1878	0.026704
1890	0.0856414
1902	0.032359
1914	0.0659746
1926	0.0446743
1938	0.0231854
1950	0.0216774
1962	0.0174047
1974	0.0204207
1986	0.0129436
1998	0.0253845
2010	0.0110586
2022	0.0330502
2034	0.00810546
2046	0.0221172
2058	0.0101789
2070	0.0162737
2082	0.0155826
2094	0.0178446
2106	0.0111843
2118	0.0170906
2130	0.00917362
2142	0.0126294
2154	0.0142003
2166	0.0116869
2178	0.0107444
2190	0.0121268
2202	0.00829396
2214	0.00973911
2226	0.00992761
2238	0.0072258
2250	0.00911078
2262	0.00584347
2274	0.00471247
2286	0.00823112
2298	0.0064718
2310	0.00936212
2322	0.0160852
2334	0.0109958
2346	0.0145773
2358	0.0182844
2370	0.0100533
2382	0.0124409
2394	0.0111843
2406	0.0110586
2418	0.0137604
2430	0.0120639
2442	0.0125038
2454	0.0142003
2466	0.0119383
2478	0.0131949
2490	0.0150799
2502	0.0131949
2514	0.0157082
2526	0.0157711
2538	0.0143888
2550	0.0158339
2562	0.0153313
2574	0.0149543
2586	0.0180331
2598	0.0160852
2610	0.0175932
2622	0.0189127
2634	0.0163366
2646	0.0181587
2658	0.0194782
2670	0.0179074
2682	0.0204207
2694	0.0206092
2706	0.0192269
2718	0.0213632
2730	0.0197924
2742	0.0196039
2754	0.0223685
2766	0.0204836
2778	0.0218659
2790	0.0226827
2802	0.0216146
2814	0.023311
2826	0.0231854
2838	0.0207977
2850	0.0241907
2862	0.024065
2874	0.023688
2886	0.0258244
2898	0.0232482
2910	0.0234995
2922	0.0272695
2934	0.0267669
2946	0.0263899
2958	0.0307882
2970	0.0273324
2982	0.0285262
2994	0.0313537
3006	0.0295943
3018	0.0299085
3030	0.0339298
3042	0.026704
3054	0.0336157
3066	0.0335528
3078	0.0337413
3090	0.0301598
3102	0.0351236
3114	0.0363175
3126	0.0383281
3138	0.0311652
3150	0.0324847
3162	0.0310395
3174	0.0319192
3186	0.0349351
3198	0.0364431
3210	0.039145
3222	0.0368201
3234	0.0379511
3246	0.0404016
3258	0.0422238
3270	0.0328617
3282	0.0421609
3294	0.0404016
3306	0.0359405
3318	0.037637
3330	0.0424751
3342	0.0407158
3354	0.039522
3366	0.0566125
3378	0.037637
3390	0.0500779
3402	0.0498894
3414	0.0467478
3426	0.055293
3438	0.0599427
3450	0.0826254
3462	0.0804262
3474	0.0522771
3486	0.108827
3498	0.0819971
3510	0.104303
3522	0.098962
3534	0.0843847
3546	0.23776
3558	0.167701
3570	0.325663
3582	0.0691163
3594	0.147846
3606	0.167073
3618	0.296509
3630	0.405838
3642	0.0981451
3654	0.288843
3666	0.0897884
3678	0.298268
3690	0.358651
3702	0.179577
3714	0.380265
3726	0.364808
3738	0.46088
3750	0.578566
3762	0.174299
3774	0.069996
3786	0.13019
3798	0.186551
3810	0.157836
3822	0.275586
3834	0.224754
3846	0.131824
3858	0.262265
3870	0.300153
3882	0.342063
3894	0.129059
3906	0.399744
3918	0.199746
3930	0.140369
3942	0.135594
3954	0.0787297
3966	0.099716
