Infrared Spectrum: WATER
Formula: H2O
CAS: 7732-18-5
State: LIQUID (NEAT)
Class: COBLENTZ III
Instrument: DOW KBr FOREPRISM-GRATING
Instrument parameters: BLAZED AT 3.5, 12.0, 20.0 MICRON, CHANGED AT 5.0, 7.5, 14.9 MICRON
Sampling: TRANSMISSION
Path length: 0.0024 CAPILLARY, AgCl PLATES
Resolution: 4
Origin: DOW CHEMICAL COMPANY
1/CM	TRANSMITTANCE
388.677	0.438
397.387	0.433
406.097	0.43
414.807	0.429
423.516	0.423
432.226	0.418
440.936	0.412
449.646	0.408
458.356	0.401
467.066	0.395
475.776	0.385
484.486	0.377
493.195	0.369
501.905	0.356
510.615	0.348
519.325	0.341
528.035	0.336
536.745	0.331
545.455	0.322
554.164	0.314
562.874	0.307
571.584	0.301
580.294	0.297
589.004	0.291
597.714	0.287
606.424	0.284
615.133	0.283
623.843	0.28
632.553	0.279
641.263	0.276
649.973	0.275
658.683	0.273
667.393	0.273
676.103	0.273
684.812	0.272
693.522	0.272
702.232	0.275
710.942	0.276
719.652	0.277
728.362	0.282
737.072	0.287
745.781	0.294
754.491	0.301
763.201	0.309
771.911	0.316
780.621	0.324
789.331	0.333
798.041	0.343
806.751	0.354
815.46	0.367
824.17	0.384
832.88	0.401
841.59	0.423
850.3	0.44
859.01	0.465
867.72	0.483
876.429	0.504
885.139	0.536
893.849	0.564
902.559	0.588
911.269	0.611
919.979	0.63
928.689	0.648
937.398	0.664
946.108	0.681
954.818	0.696
963.528	0.709
972.238	0.724
980.948	0.734
989.658	0.741
998.368	0.752
1007.08	0.761
1015.79	0.764
1024.5	0.772
1033.21	0.776
1041.92	0.78
1050.63	0.784
1059.34	0.786
1068.05	0.788
1076.76	0.79
1085.47	0.795
1094.18	0.795
1102.89	0.798
1111.6	0.799
1120.31	0.799
1129.02	0.799
1137.73	0.801
1146.44	0.801
1155.15	0.801
1163.85	0.799
1172.56	0.798
1181.27	0.798
1189.98	0.797
1198.69	0.797
1207.4	0.794
1216.11	0.794
1224.82	0.791
1233.53	0.788
1242.24	0.787
1250.95	0.786
1259.66	0.786
1268.37	0.786
1277.08	0.784
1285.79	0.783
1294.5	0.783
1303.21	0.779
1311.92	0.779
1320.63	0.782
1329.34	0.78
1338.05	0.777
1346.76	0.776
1355.47	0.773
1364.18	0.772
1372.89	0.776
1381.6	0.776
1390.31	0.771
1399.02	0.769
1407.73	0.768
1416.44	0.768
1425.15	0.767
1433.86	0.765
1442.57	0.761
1451.28	0.758
1459.99	0.757
1468.7	0.752
1477.41	0.747
1486.12	0.743
1494.83	0.737
1503.54	0.727
1512.25	0.722
1520.96	0.713
1529.67	0.701
1538.38	0.692
1547.09	0.673
1555.8	0.655
1564.51	0.634
1573.22	0.608
1581.93	0.577
1590.64	0.529
1599.35	0.48
1608.06	0.418
1616.77	0.35
1625.48	0.294
1634.19	0.265
1642.9	0.267
1651.61	0.283
1660.32	0.321
1669.03	0.355
1677.74	0.414
1686.45	0.47
1695.16	0.559
1703.87	0.629
1712.58	0.685
1721.29	0.741
1730	0.782
1738.71	0.814
1747.42	0.832
1756.13	0.85
1764.84	0.863
1773.55	0.877
1782.26	0.886
1790.97	0.893
1799.68	0.899
1808.38	0.901
1817.09	0.907
1825.8	0.912
1834.51	0.914
1843.22	0.915
1851.93	0.916
1860.64	0.918
1869.35	0.919
1878.06	0.918
1886.77	0.918
1895.48	0.916
1904.19	0.915
1912.9	0.914
1921.61	0.912
1930.32	0.908
1939.03	0.903
1947.74	0.901
1956.45	0.897
1965.16	0.891
1973.87	0.885
1982.58	0.881
1991.29	0.874
2000	0.871
2008.71	0.874
2017.42	0.871
2026.13	0.866
2034.84	0.863
2043.55	0.858
2052.26	0.854
2060.97	0.852
2069.68	0.851
2078.39	0.85
2087.1	0.846
2095.81	0.844
2104.52	0.843
2113.23	0.843
2121.94	0.843
2130.65	0.843
2139.36	0.841
2148.07	0.843
2156.78	0.843
2165.49	0.846
2174.2	0.8539
2182.91	0.854
2191.62	0.854
2200.33	0.856
2209.04	0.8609
2217.75	0.866
2226.46	0.87
2235.17	0.876
2243.88	0.8809
2252.59	0.8849
2261.3	0.889
2270.01	0.892
2278.72	0.897
2287.43	0.9
2296.14	0.905
2304.85	0.9119
2313.56	0.9199
2322.27	0.9326
2330.98	0.941
2339.69	0.944
2348.4	0.944
2357.11	0.945
2365.82	0.948
2374.53	0.9451
2383.24	0.944
2391.95	0.9449
2400.66	0.9479
2409.37	0.949
2418.08	0.952
2426.79	0.955
2435.5	0.957
2444.21	0.959
2452.91	0.9599
2461.62	0.961
2470.33	0.964
2479.04	0.967
2487.75	0.968
2496.46	0.971
2505.17	0.974
2513.88	0.974
2522.59	0.9778
2531.3	0.976
2540.01	0.979
2548.72	0.9818
2557.43	0.9802
2566.14	0.983
2574.85	0.9832
2583.56	0.9859
2592.27	0.987
2600.98	0.986
2609.69	0.987
2618.4	0.987
2627.11	0.987
2635.82	0.987
2644.53	0.987
2653.24	0.987
2661.95	0.985
2670.66	0.983
2679.37	0.982
2688.08	0.98
2696.79	0.978
2705.5	0.976
2714.21	0.974
2722.92	0.971
2731.63	0.9671
2740.34	0.964
2749.05	0.9591
2757.76	0.9551
2766.47	0.9481
2775.18	0.942
2783.89	0.9353
2792.6	0.9291
2801.31	0.9234
2810.02	0.9141
2818.73	0.907
2827.44	0.8951
2836.15	0.8803
2844.86	0.8713
2853.57	0.8624
2862.28	0.8543
2870.99	0.8446
2879.7	0.8352
2888.41	0.8203
2897.12	0.8052
2905.83	0.785
2914.54	0.7621
2923.25	0.7426
2931.96	0.725
2940.67	0.7032
2949.38	0.6858
2958.09	0.6637
2966.8	0.6382
2975.51	0.6173
2984.22	0.5962
2992.93	0.571
3001.64	0.5441
3010.35	0.5122
3019.06	0.4857
3027.77	0.4503
3036.48	0.4211
3045.19	0.3896
3053.9	0.3643
3062.61	0.3413
3071.32	0.3047
3080.03	0.2729
3088.74	0.2474
3097.44	0.2236
3106.15	0.1928
3114.86	0.1742
3123.57	0.1524
3132.28	0.1348
3140.99	0.111
3149.7	0.0964
3158.41	0.0774
3167.12	0.0616
3175.83	0.0494
3184.54	0.0382
3193.25	0.0312
3201.96	0.0254
3210.67	0.0202
3219.38	0.0162
3228.09	0.0132
3236.8	0.0104
3245.51	0.009
3254.22	0.008
3262.93	0.0064
3271.64	0.006
3280.35	0.006
3289.06	0.0042
3297.77	0.002
3306.48	0.001
3315.19	0.001
3323.9	0.001
3332.61	0.001
3341.32	0.001
3350.03	0.001
3358.74	0.001
3367.45	0.001
3376.16	0.001
3384.87	0.001
3393.58	0.001
3402.29	0.001
3411	0.001
3419.71	0.001
3428.42	0.001
3437.13	0.001
3445.84	0.001
3454.55	0.002
3463.26	0.004
3471.97	0.0047
3480.68	0.005
3489.39	0.006
3498.1	0.008
3506.81	0.0097
3515.52	0.012
3524.23	0.012
3532.94	0.016
3541.65	0.019
3550.36	0.0222
3559.07	0.0304
3567.78	0.034
3576.49	0.0397
3585.2	0.0522
3593.91	0.0617
3602.62	0.0722
3611.33	0.0859
3620.04	0.1099
3628.75	0.1359
3637.46	0.169
3646.17	0.2134
3654.88	0.2796
3663.59	0.3545
3672.3	0.4294
3681.01	0.5182
3689.72	0.6227
3698.43	0.686
3707.14	0.7398
3715.85	0.7809
3724.56	0.8081
3733.27	0.8228
3741.97	0.8351
3750.68	0.8501
3759.39	0.8591
3768.1	0.8681
3776.81	0.8761
3785.52	0.8834
3794.23	0.886
