Infrared Spectrum: N-HEXANE
Formula: C6H14
CAS: 110-54-3
State: LIQUID (NEAT)
Class: COBLENTZ III
Instrument: DOW KBr FOREPRISM-GRATING
Instrument parameters: BLAZED AT 3.5, 12.0, 20.0 MICRON, CHANGED AT 5.0, 7.5, 14.9 MICRON
Sampling: TRANSMISSION
Path length: 0.011 CM
Resolution: 4
Origin: DOW CHEMICAL COMPANY
1/CM	TRANSMITTANCE
445.267	1.036
453.972	1.034
462.677	1.032
471.382	1.031
480.087	1.031
488.793	1.036
497.498	1.044
506.203	1.049
514.908	1.053
523.613	1.061
532.318	1.07
541.023	1.076
549.728	1.079
558.434	1.083
567.139	1.081
575.844	1.081
584.549	1.081
593.254	1.08
601.959	1.077
610.664	1.077
619.369	1.074
628.074	1.074
636.78	1.068
645.485	1.066
654.19	1.065
662.895	1.059
671.6	1.046
680.305	1.042
689.01	1.021
697.715	0.978
706.42	0.824
715.126	0.4679
723.831	0.104
732.536	0.441
741.241	0.709
749.946	0.772
758.651	0.544
767.356	0.835
776.061	0.861
784.767	0.9
793.472	0.787
802.177	0.798
810.882	0.896
819.587	0.858
828.292	0.92
836.997	1.016
845.702	1.013
854.407	0.997
863.113	0.896
871.818	0.777
880.523	0.6548
889.228	0.553
897.933	0.72
906.638	0.688
915.343	0.892
924.048	1.006
932.754	1.023
941.459	1.016
950.164	1.005
958.869	0.998
967.574	0.925
976.279	0.945
984.984	0.965
993.689	0.888
1002.39	0.814
1011.1	0.802
1019.8	0.863
1028.51	0.829
1037.21	0.75
1045.92	0.822
1054.63	0.678
1063.33	0.615
1072.04	0.802
1080.74	0.93
1089.45	1.004
1098.15	1.027
1106.86	1.027
1115.56	1.017
1124.27	0.975
1132.97	0.794
1141.68	0.795
1150.38	0.944
1159.09	1.001
1167.79	1.004
1176.5	1.023
1185.2	1.025
1193.91	1.014
1202.61	0.995
1211.32	0.944
1220.02	0.866
1228.73	0.918
1237.43	0.926
1246.14	0.817
1254.84	0.816
1263.55	0.896
1272.25	0.874
1280.96	0.799
1289.66	0.7009
1298.37	0.5871
1307.07	0.651
1315.78	0.756
1324.48	0.78
1333.19	0.685
1341.89	0.4379
1350.6	0.562
1359.3	0.569
1368.01	0.4119
1376.71	0.0919
1385.42	0.019
1394.12	0.3431
1402.83	0.517
1411.53	0.512
1420.24	0.46
1428.95	0.34
1437.65	0.123
1446.36	0.02
1455.06	0.004
1463.77	0.002
1472.47	0.005
1481.18	0.034
1489.88	0.2671
1498.59	0.464
1507.29	0.604
1516	0.694
1524.7	0.743
1533.41	0.795
1542.11	0.852
1550.82	0.88
1559.52	0.915
1568.23	0.93
1576.93	0.95
1585.64	0.965
1594.34	0.97
1603.05	0.971
1611.75	0.97
1620.46	0.968
1629.16	0.978
1637.87	0.985
1646.57	0.989
1655.28	1.001
1663.98	1.004
1672.69	1.009
1681.39	1.012
1690.1	1.01
1698.8	1.016
1707.51	1.025
1716.21	1.044
1724.92	1.049
1733.62	1.053
1742.33	1.055
1751.03	1.066
1759.74	1.064
1768.44	1.058
1777.15	1.054
1785.85	1.065
1794.56	1.066
1803.27	1.07
1811.97	1.07
1820.68	1.07
1829.38	1.073
1838.09	1.072
1846.79	1.07
1855.5	1.07
1864.2	1.07
1872.91	1.07
1881.61	1.057
1890.32	1.047
1899.02	1.05
1907.73	1.069
1916.43	1.069
1925.14	1.069
1933.84	1.069
1942.55	1.066
1951.25	1.066
1959.96	1.0431
1968.66	1.076
1977.37	1.077
1986.07	1.08
1994.78	1.073
2003.48	1.065
2012.19	1.057
2020.89	1.036
2029.6	1.02
2038.3	1.043
2047.01	1.043
2055.71	1.047
2064.42	1.061
2073.12	1.062
2081.83	1.062
2090.53	1.061
2099.24	1.059
2107.94	1.053
2116.65	1.051
2125.35	1.046
2134.06	1.042
2142.76	1.035
2151.47	1.029
2160.17	1.024
2168.88	1.023
2177.59	1.017
2186.29	1.019
2195	1.021
2203.7	1.023
2212.41	1.028
2221.11	1.028
2229.82	1.028
2238.52	1.025
2247.23	1.021
2255.93	1.021
2264.64	1.023
2273.34	1.023
2282.05	1.025
2290.75	1.029
2299.46	1.028
2308.16	1.0159
2316.87	1.005
2325.57	1.002
2334.28	1.001
2342.98	0.9929
2351.69	0.9639
2360.39	0.965
2369.1	0.976
2377.8	0.971
2386.51	0.9801
2395.21	1.002
2403.92	1.002
2412.62	0.991
2421.33	1.0021
2430.03	1.013
2438.74	1.016
2447.44	1.02
2456.15	1.02
2464.85	1.017
2473.56	1.014
2482.26	1.013
2490.97	1.002
2499.67	0.995
2508.38	0.995
2517.08	0.994
2525.79	0.987
2534.49	0.98
2543.2	0.968
2551.91	0.965
2560.61	0.9608
2569.32	0.9368
2578.02	0.8645
2586.73	0.8129
2595.43	0.8059
2604.14	0.7649
2612.84	0.7653
2621.55	0.784
2630.25	0.7819
2638.96	0.7708
2647.66	0.717
2656.37	0.707
2665.07	0.6655
2673.78	0.6101
2682.48	0.6486
2691.19	0.6928
2699.89	0.7518
2708.6	0.7257
2717.3	0.6433
2726.01	0.5789
2734.71	0.4353
2743.42	0.5264
2752.12	0.6021
2760.83	0.6
2769.53	0.5865
2778.24	0.5304
2786.94	0.4297
2795.65	0.3464
2804.35	0.2383
2813.06	0.1455
2821.76	0.0803
2830.47	0.0316
2839.17	0
2847.88	0
2856.58	0
2865.29	0
2873.99	0
2882.7	0
2891.4	0
2900.11	0
2908.81	0
2917.52	0
2926.23	0
2934.93	0
2943.64	0
2952.34	0
2961.05	0
2969.75	0
2978.46	0.001
2987.16	0.002
2995.87	0.0144
3004.57	0.0793
3013.28	0.1796
3021.98	0.2812
3030.69	0.357
3039.39	0.4207
3048.1	0.4751
3056.8	0.5435
3065.51	0.5886
3074.21	0.6446
3082.92	0.7009
3091.62	0.7345
3100.33	0.7625
3109.03	0.7842
3117.74	0.7952
3126.44	0.8071
3135.15	0.8162
3143.85	0.8211
3152.56	0.821
3161.26	0.82
3169.97	0.8169
3178.67	0.814
3187.38	0.8131
3196.08	0.8202
3204.79	0.8463
3213.49	0.8828
3222.2	0.9231
3230.9	0.9536
3239.61	0.9782
3248.31	0.9891
3257.02	0.995
3265.72	1.0001
3274.43	1.013
3283.14	1.0172
3291.84	1.021
3300.55	1.023
3309.25	1.023
3317.96	1.021
3326.66	1.021
3335.37	1.019
3344.07	1.0139
3352.78	1.008
3361.48	1.006
3370.19	1.0081
3378.89	1.012
3387.6	1.016
3396.3	1.021
3405.01	1.021
3413.71	1.021
3422.42	1.0212
3431.12	1.0253
3439.83	1.0366
3448.53	1.044
3457.24	1.0491
3465.94	1.057
3474.65	1.058
3483.35	1.058
3492.06	1.058
3500.76	1.058
3509.47	1.058
3518.17	1.058
3526.88	1.0579
3535.58	1.057
3544.29	1.055
3552.99	1.0539
3561.7	1.05
3570.4	1.047
3579.11	1.044
3587.81	1.0399
3596.52	1.0289
3605.22	1.01
3613.93	1.009
3622.63	1.009
3631.34	1.009
3640.04	1.008
3648.75	1.008
3657.46	1.008
3666.16	1.009
3674.87	1.0102
3683.57	1.0142
3692.28	1.019
3700.98	1.019
3709.69	1.0212
3718.39	1.029
3727.1	1.0192
3735.8	1.0019
3744.51	0.9998
3753.21	0.998
3761.92	0.997
