Infrared Spectrum: CARBON DIOXIDE
Formula: CO2
CAS: 124-38-9
State: GAS (200 mmHg DILUTED TO A TOTAL PRESSURE OF 600 mmHg WITH N2)
Class: COBLENTZ
Instrument: DOW KBr FOREPRISM
Instrument parameters: GRATING CHANGED AT 5.0, 7.5, 15.0 MICRON
Sampling: TRANSMISSION
Path length: 10 CM
Resolution: 4
Origin: DOW CHEMICAL COMPANY
1/CM	TRANSMITTANCE
458.879	0.973
467.29	0.973
475.701	0.979
484.113	0.975
492.524	0.975
500.935	0.971
509.346	0.966
517.758	0.963
526.169	0.966
534.58	0.965
542.991	0.965
551.403	0.962
559.814	0.969
568.225	0.973
576.636	0.978
585.048	0.973
593.459	0.962
601.87	0.929
610.281	0.933
618.693	0.9288
627.104	0.903
635.515	0.7231
643.926	0.534
652.338	0.3608
660.749	0.362
669.16	0.1341
677.571	0.281
685.983	0.326
694.394	0.445
702.805	0.631
711.216	0.809
719.628	0.93
728.039	0.946
736.45	0.927
744.861	0.937
753.273	0.976
761.684	0.986
770.095	0.989
778.506	0.991
786.918	0.989
795.329	0.989
803.74	0.986
812.151	0.989
820.563	0.991
828.974	0.992
837.385	0.992
845.796	0.994
854.208	0.994
862.619	0.994
871.03	0.995
879.441	0.995
887.853	0.995
896.264	0.995
904.675	0.995
913.086	1.001
921.498	1.002
929.909	1.004
938.32	1.005
946.731	1.005
955.143	1.005
963.554	1.005
971.965	1.007
980.376	1.007
988.788	1.007
997.199	1.008
1005.61	1.004
1014.02	1.01
1022.43	1.014
1030.84	1.015
1039.26	1.014
1047.67	1.015
1056.08	1.013
1064.49	1.013
1072.9	1.004
1081.31	1.011
1089.72	1.014
1098.13	1.017
1106.55	1.017
1114.96	1.018
1123.37	1.018
1131.78	1.014
1140.19	1.011
1148.6	1.015
1157.01	1.018
1165.42	1.018
1173.84	1.017
1182.25	1.014
1190.66	1.021
1199.07	1.023
1207.48	1.023
1215.89	1.023
1224.3	1.02
1232.71	1.02
1241.13	1.01
1249.54	1.004
1257.95	1.001
1266.36	1
1274.77	0.998
1283.18	0.997
1291.59	0.994
1300	0.994
1308.42	0.995
1316.83	0.992
1325.24	0.995
1333.65	0.995
1342.06	0.995
1350.47	0.994
1358.88	0.984
1367.29	0.986
1375.71	0.979
1384.12	0.962
1392.53	0.989
1400.94	0.995
1409.35	0.995
1417.76	0.997
1426.17	0.995
1434.58	0.992
1443	0.992
1451.41	0.991
1459.82	0.986
1468.23	0.991
1476.64	0.992
1485.05	0.986
1493.46	0.988
1501.87	0.988
1510.29	0.991
1518.7	0.988
1527.11	0.988
1535.52	0.988
1543.93	0.986
1552.34	0.991
1560.75	0.988
1569.16	0.989
1577.58	0.986
1585.99	0.989
1594.4	0.989
1602.81	0.988
1611.22	0.989
1619.63	0.989
1628.04	0.991
1636.45	0.994
1644.87	0.998
1653.28	0.992
1661.69	0.989
1670.1	0.988
1678.51	0.988
1686.92	0.991
1695.33	0.986
1703.74	0.985
1712.15	0.988
1720.57	0.985
1728.98	0.984
1737.39	0.986
1745.8	0.985
1754.21	0.985
1762.62	0.985
1771.03	0.986
1779.44	0.986
1787.86	0.986
1796.27	0.986
1804.68	0.986
1813.09	0.988
1821.5	0.988
1829.91	0.988
1838.32	0.988
1846.73	0.988
1855.15	0.988
1863.56	0.988
1871.97	0.986
1880.38	0.986
1888.79	0.986
1897.2	0.986
1905.61	0.988
1914.02	0.986
1922.44	0.988
1930.85	0.988
1939.26	0.986
1947.67	0.984
1956.08	0.978
1964.49	0.988
1972.9	0.989
1981.31	0.989
1989.73	0.989
1998.14	0.989
2006.55	0.989
2014.96	0.989
2023.37	0.989
2031.78	0.989
2040.19	0.988
2048.6	0.986
2057.02	0.985
2065.43	0.986
2073.84	0.988
2082.25	0.9813
2090.66	0.988
2099.07	0.9903
2107.48	0.991
2115.89	0.989
2124.31	0.989
2132.72	0.989
2141.13	0.991
2149.54	0.991
2157.95	0.991
2166.36	0.992
2174.77	0.992
2183.18	0.994
2191.6	0.994
2200.01	0.992
2208.42	0.991
2216.83	0.989
2225.24	0.9853
2233.65	0.9773
2242.06	0.9503
2250.47	0.8472
2258.89	0.7881
2267.3	0.7539
2275.71	0.6765
2284.12	0.6885
2292.53	0.4598
2300.94	0.14
2309.35	0.1084
2317.76	0.0216
2326.18	0.018
2334.59	0.02
2343	0.021
2351.41	0.023
2359.82	0.0286
2368.23	0.031
2376.64	0.0332
2385.05	0.462
2393.47	0.81
2401.88	0.9873
2410.29	0.9911
2418.7	0.994
2427.11	0.992
2435.52	0.992
2443.93	0.994
2452.34	0.994
2460.76	0.994
2469.17	0.994
2477.58	0.994
2485.99	0.994
2494.4	0.994
2502.81	0.994
2511.22	0.994
2519.63	0.994
2528.05	0.995
2536.46	0.995
2544.87	0.995
2553.28	0.995
2561.69	0.997
2570.1	0.997
2578.51	0.997
2586.92	0.997
2595.34	0.998
2603.75	0.998
2612.16	0.998
2620.57	0.998
2628.98	0.998
2637.39	0.998
2645.8	0.998
2654.21	1
2662.63	0.998
2671.04	0.9972
2679.45	0.997
2687.86	0.998
2696.27	0.998
2704.68	0.998
2713.09	0.998
2721.5	0.998
2729.92	0.998
2738.33	0.998
2746.74	0.998
2755.15	0.998
2763.56	0.998
2771.97	0.998
2780.38	0.998
2788.79	0.998
2797.21	0.998
2805.62	0.998
2814.03	0.998
2822.44	0.998
2830.85	0.998
2839.26	1.0012
2847.67	1.002
2856.08	0.9946
2864.5	0.991
2872.91	0.9922
2881.32	0.9961
2889.73	0.998
2898.14	1
2906.55	1.001
2914.96	1.004
2923.37	1.002
2931.79	0.9878
2940.2	0.984
2948.61	0.986
2957.02	0.988
2965.43	0.989
2973.84	0.992
2982.25	0.992
2990.66	0.992
2999.08	0.992
3007.49	0.992
3015.9	0.992
3024.31	0.992
3032.72	0.992
3041.13	0.991
3049.54	0.991
3057.95	0.991
3066.37	0.992
3074.78	0.992
3083.19	0.994
3091.6	0.994
3100.01	0.994
3108.42	0.994
3116.83	0.994
3125.24	0.9942
3133.66	0.995
3142.07	0.997
3150.48	0.9977
3158.89	0.998
3167.3	0.998
3175.71	0.998
3184.12	0.998
3192.53	0.998
3200.95	0.998
3209.36	0.998
3217.77	0.998
3226.18	0.998
3234.59	0.998
3243	0.998
3251.41	0.9987
3259.82	1
3268.24	1
3276.65	1
3285.06	1
3293.47	1.001
3301.88	1.001
3310.29	1.001
3318.7	1.001
3327.11	1.001
3335.53	1.001
3343.94	1.001
3352.35	1.001
3360.76	1.001
3369.17	1.001
3377.58	1.001
3385.99	1.001
3394.4	1.001
3402.82	1.001
3411.23	1.001
3419.64	1.001
3428.05	1.001
3436.46	1.001
3444.87	1
3453.28	1
3461.69	1
3470.11	1
3478.52	1
3486.93	1
3495.34	0.998
3503.75	0.997
3512.16	0.995
3520.57	0.992
3528.98	0.989
3537.4	0.9839
3545.81	0.9686
3554.22	0.9431
3562.63	0.905
3571.04	0.8854
3579.45	0.8132
3587.86	0.6713
3596.27	0.668
3604.69	0.882
3613.1	0.6985
3621.51	0.6173
3629.92	0.7171
3638.33	0.9222
3646.74	0.978
3655.15	0.9681
3663.56	0.9116
3671.98	0.8347
3680.39	0.761
3688.8	0.6366
3697.21	0.5916
3705.62	0.7635
3714.03	0.5131
3722.44	0.54
3730.85	0.7065
3739.27	0.9532
3747.68	1
3756.09	1.002
3764.5	1.002
3772.91	1.002
3781.32	1.001
3789.73	1.001
