Infrared Spectrum: Carbon dioxide
Formula: CO2
CAS: 124-38-9
State: gas
Origin: Sadtler Research Labs Under US-EPA Contract
1/CM	ABSORBANCE
450	0
462	0.0143882
474	0.026067
486	0.0202743
498	0.0134539
510	0.0172845
522	0.0111182
534	0.0170977
546	0.0197137
558	0.0153225
570	0.0257867
582	0.026721
594	0.0258801
606	0.0342888
618	0.0618507
630	0.0511996
642	0.0780141
654	0.0981015
666	0.0924957
678	0.0991292
690	0.130615
702	0.0826856
714	0.0279356
726	0.0377457
738	0.0327939
750	0.0326071
762	0.027375
774	0.0257867
786	0.0268144
798	0.0255998
810	0.0259735
822	0.0270947
834	0.0244787
846	0.0261604
858	0.0263473
870	0.0253195
882	0.026067
894	0.0250392
906	0.0227035
918	0.0227035
930	0.0212086
942	0.0210218
954	0.0208349
966	0.0199006
978	0.0196203
990	0.0189663
1002	0.0182189
1014	0.0188729
1026	0.0190597
1038	0.0190597
1050	0.0189663
1062	0.0178451
1074	0.017378
1086	0.0176583
1098	0.0166305
1110	0.0172845
1122	0.017378
1134	0.0164437
1146	0.0170043
1158	0.0166305
1170	0.015416
1182	0.0156962
1194	0.0147619
1206	0.0152291
1218	0.015416
1230	0.0152291
1242	0.0153225
1254	0.0153225
1266	0.0149488
1278	0.0147619
1290	0.0145751
1302	0.0148554
1314	0.0145751
1326	0.0149488
1338	0.0142948
1350	0.0143882
1362	0.0142014
1374	0.0138276
1386	0.0140145
1398	0.0137342
1410	0.0139211
1422	0.0136408
1434	0.0129868
1446	0.0131736
1458	0.0133605
1470	0.0127065
1482	0.0128933
1494	0.0130802
1506	0.0130802
1518	0.0128933
1530	0.0131736
1542	0.0135474
1554	0.0126131
1566	0.0127999
1578	0.0133605
1590	0.0126131
1602	0.0122393
1614	0.0120525
1626	0.0124262
1638	0.0121459
1650	0.0125196
1662	0.0113985
1674	0.0122393
1686	0.0121459
1698	0.0117722
1710	0.0109313
1722	0.0111182
1734	0.0113985
1746	0.0108379
1758	0.0102773
1770	0.0103707
1782	0.00999701
1794	0.0100904
1806	0.00990358
1818	0.00990358
1830	0.00999701
1842	0.00971672
1854	0.00952986
1866	0.00943643
1878	0.00924957
1890	0.009343
1902	0.00915614
1914	0.00943643
1926	0.00915614
1938	0.00896928
1950	0.00878242
1962	0.00896928
1974	0.00878242
1986	0.00868899
1998	0.00868899
2010	0.00859556
2022	0.00850213
2034	0.00794155
2046	0.00822184
2058	0.00822184
2070	0.00794155
2082	0.00812841
2094	0.00775469
2106	0.00728754
2118	0.00756783
2130	0.00756783
2142	0.00710068
2154	0.00728754
2166	0.00682039
2178	0.00682039
2190	0.00700725
2202	0.00644667
2214	0.00719411
2226	0.00859556
2238	0.0126131
2250	0.0217692
2262	0.0331676
2274	0.0537223
2286	0.118376
2298	0.290007
2310	0.492283
2322	0.55759
2334	0.592253
2346	0.645975
2358	0.9343
2370	0.683254
2382	0.265715
2394	0.0110247
2406	0.00625981
2418	0.00551237
2430	0.00541894
2442	0.00504522
2454	0.00457807
2466	0.00495179
2478	0.00476493
2490	0.00439121
2502	0.00457807
2514	0.00383063
2526	0.0037372
2538	0.00383063
2550	0.00392406
2562	0.00336348
2574	0.00345691
2586	0.00327005
2598	0.00336348
2610	0.00298976
2622	0.0028029
2634	0.00289633
2646	0.00261604
2658	0.00270947
2670	0.00270947
2682	0.00205546
2694	0.00261604
2706	0.00242918
2718	0.00270947
2730	0.0028029
2742	0.00242918
2754	0.00252261
2766	0.00289633
2778	0.00261604
2790	0.00252261
2802	0.00252261
2814	0.00298976
2826	0.00327005
2838	0.0028029
2850	0.0028029
2862	0.00289633
2874	0.00298976
2886	0.00289633
2898	0.00261604
2910	0.0028029
2922	0.00270947
2934	0.00289633
2946	0.00270947
2958	0.00289633
2970	0.0028029
2982	0.00242918
2994	0.00270947
3006	0.0028029
3018	0.00224232
3030	0.00252261
3042	0.00252261
3054	0.00270947
3066	0.00224232
3078	0.00298976
3090	0.00270947
3102	0.00270947
3114	0.00317662
3126	0.00355034
3138	0.00364377
3150	0.00308319
3162	0.0037372
3174	0.00392406
3186	0.0037372
3198	0.0037372
3210	0.00383063
3222	0.00383063
3234	0.00411092
3246	0.00439121
3258	0.00448464
3270	0.00411092
3282	0.00401749
3294	0.00523208
3306	0.00448464
3318	0.00485836
3330	0.00532551
3342	0.00504522
3354	0.00588609
3366	0.00523208
3378	0.00513865
3390	0.00513865
3402	0.00485836
3414	0.00523208
3426	0.00504522
3438	0.00504522
3450	0.0056058
3462	0.00551237
3474	0.00532551
3486	0.00476493
3498	0.00551237
3510	0.00616638
3522	0.00551237
3534	0.00738097
3546	0.00952986
3558	0.0124262
3570	0.0159765
3582	0.01934
3594	0.0331676
3606	0.0284962
3618	0.0179386
3630	0.0376523
3642	0.0213955
3654	0.0084087
3666	0.00943643
3678	0.0190597
3690	0.0322334
3702	0.0428844
3714	0.0203677
3726	0.0455938
3738	0.0541894
3750	0.01934
3762	0.00476493
3774	0.00364377
3786	0.00383063
3798	0.00411092
3810	0.00317662
3822	0.00523208
3834	0.00485836
3846	0.00289633
3858	0.00485836
3870	0.0056058
3882	0.00504522
3894	0.00495179
3906	0.00457807
3918	0.00597952
3930	0.00495179
3942	0.00504522
3954	0.0065401
3966	0.00597952
