Infrared Spectrum: 1,4-DIOXANE
Formula: C4H8O2
CAS: 123-91-1
State: SOLUTION (10% IN CCl4 FOR 3800-1340, 10% IN CS2 FOR 1340-460 CM^-^1)
Class: COBLENTZ III
Instrument: DOW KBr FOREPRISM-GRATING
Instrument parameters: BLAZED AT 3.5, 12.0, 20.0 MICRON, CHANGED AT 5.0, 7.5, 14.9 MICRON
Sampling: TRANSMISSION
Path length: 0.011, 0.011 CM
Resolution: 4
Origin: DOW CHEMICAL COMPANY
1/CM	TRANSMITTANCE
464.143	0.93
472.68	0.926
481.218	0.923
489.755	0.929
498.292	0.931
506.83	0.931
515.367	0.926
523.904	0.925
532.441	0.929
540.979	0.931
549.516	0.933
558.053	0.933
566.591	0.931
575.128	0.93
583.665	0.921
592.203	0.892
600.74	0.832
609.277	0.172
617.815	0.563
626.352	0.871
634.889	0.921
643.426	0.917
651.964	0.914
660.501	0.941
669.038	0.973
677.576	0.954
686.113	0.967
694.65	0.977
703.188	0.979
711.725	0.989
720.262	1.001
728.8	1.01
737.337	1.012
745.874	1.018
754.411	1.025
762.949	1.033
771.486	1.033
780.023	1.032
788.561	1.025
797.098	1.02
805.635	1.017
814.173	1.012
822.71	0.998
831.247	0.949
839.784	0.884
848.322	0.775
856.859	0.637
865.396	0.232
873.934	0.001
882.471	0.061
891.008	0.3981
899.546	0.817
908.083	0.922
916.62	0.965
925.158	0.979
933.695	1.001
942.232	1.01
950.769	1.016
959.307	1.025
967.844	1.033
976.381	1.033
984.919	1.032
993.456	1.024
1001.99	1.004
1010.53	0.977
1019.07	0.963
1027.61	0.942
1036.14	0.856
1044.68	0.4569
1053.22	0.724
1061.75	0.864
1070.29	0.803
1078.83	0.3069
1087.37	0.4641
1095.9	0.512
1104.44	0.274
1112.98	0.013
1121.52	0
1130.05	0.008
1138.59	0.358
1147.13	0.693
1155.66	0.824
1164.2	0.882
1172.74	0.926
1181.28	0.953
1189.81	0.959
1198.35	0.97
1206.89	0.965
1215.43	0.955
1223.96	0.947
1232.5	0.911
1241.04	0.7709
1249.58	0.095
1258.11	0.4881
1266.65	0.795
1275.19	0.777
1283.72	0.3979
1292.26	0.53
1300.8	0.779
1309.34	0.846
1317.87	0.805
1326.41	0.872
1334.95	0.891
1343.49	0.892
1352.02	0.87
1360.56	0.6069
1369.1	0.4834
1377.63	0.732
1386.17	0.891
1394.71	0.891
1403.25	0.902
1411.78	0.906
1420.32	0.894
1428.86	0.859
1437.4	0.7399
1445.93	0.315
1454.47	0.2112
1463.01	0.6581
1471.55	0.8001
1480.08	0.839
1488.62	0.852
1497.16	0.834
1505.69	0.796
1514.23	0.757
1522.77	0.717
1531.31	0.666
1539.84	0.589
1548.38	0.512
1556.92	0.523
1565.46	0.599
1573.99	0.658
1582.53	0.684
1591.07	0.718
1599.6	0.796
1608.14	0.86
1616.68	0.906
1625.22	0.918
1633.75	0.933
1642.29	0.939
1650.83	0.943
1659.37	0.947
1667.9	0.951
1676.44	0.954
1684.98	0.954
1693.52	0.951
1702.05	0.947
1710.59	0.912
1719.13	0.917
1727.66	0.894
1736.2	0.935
1744.74	0.945
1753.28	0.957
1761.81	0.961
1770.35	0.966
1778.89	0.967
1787.43	0.97
1795.96	0.973
1804.5	0.97
1813.04	0.97
1821.57	0.97
1830.11	0.974
1838.65	0.974
1847.19	0.97
1855.72	0.965
1864.26	0.967
1872.8	0.966
1881.34	0.965
1889.87	0.95
1898.41	0.926
1906.95	0.939
1915.49	0.962
1924.02	0.963
1932.56	0.963
1941.1	0.955
1949.63	0.931
1958.17	0.862
1966.71	0.891
1975.25	0.894
1983.78	0.82
1992.32	0.858
2000.86	0.915
2009.4	0.935
2017.93	0.9345
2026.47	0.944
2035.01	0.9506
2043.54	0.949
2052.08	0.95
2060.62	0.95
2069.16	0.946
2077.69	0.938
2086.23	0.949
2094.77	0.9359
2103.31	0.9436
2111.84	0.946
2120.38	0.95
2128.92	0.942
2137.46	0.9274
2145.99	0.937
2154.53	0.9481
2163.07	0.95
2171.6	0.9479
2180.14	0.9359
2188.68	0.938
2197.22	0.9316
2205.75	0.9375
2214.29	0.9274
2222.83	0.9218
2231.37	0.9145
2239.9	0.9281
2248.44	0.9279
2256.98	0.921
2265.51	0.9098
2274.05	0.894
2282.59	0.891
2291.13	0.9051
2299.66	0.9145
2308.2	0.9226
2316.74	0.9361
2325.28	0.9487
2333.81	0.953
2342.35	0.9561
2350.89	0.955
2359.43	0.955
2367.96	0.9504
2376.5	0.9393
2385.04	0.9279
2393.57	0.9264
2402.11	0.9386
2410.65	0.9496
2419.19	0.951
2427.72	0.954
2436.26	0.957
2444.8	0.9586
2453.34	0.9559
2461.87	0.9517
2470.41	0.9506
2478.95	0.955
2487.48	0.9558
2496.02	0.9598
2504.56	0.9656
2513.1	0.966
2521.63	0.9654
2530.17	0.965
2538.71	0.965
2547.25	0.9624
2555.78	0.957
2564.32	0.9512
2572.86	0.9354
2581.4	0.9226
2589.93	0.9414
2598.47	0.9562
2607.01	0.961
2615.54	0.962
2624.08	0.959
2632.62	0.9558
2641.16	0.9534
2649.69	0.9454
2658.23	0.9245
2666.77	0.9079
2675.31	0.8367
2683.84	0.7719
2692.38	0.7121
2700.92	0.6956
2709.45	0.8778
2717.99	0.912
2726.53	0.9035
2735.07	0.8522
2743.6	0.7473
2752.14	0.6774
2760.68	0.6857
2769.22	0.7706
2777.75	0.871
2786.29	0.8876
2794.83	0.8758
2803.36	0.844
2811.9	0.7738
2820.44	0.7272
2828.98	0.5746
2837.51	0.3944
2846.05	0.2145
2854.59	0.0361
2863.13	0.0096
2871.66	0.1554
2880.2	0.3777
2888.74	0.2018
2897.28	0.1094
2905.81	0.1967
2914.35	0.1025
2922.89	0.1125
2931.42	0.3242
2939.96	0.4107
2948.5	0.3443
2957.04	0.1027
2965.57	0.0147
2974.11	0.0227
2982.65	0.2114
2991.19	0.4578
2999.72	0.6543
3008.26	0.7891
3016.8	0.8537
3025.33	0.8917
3033.87	0.9133
3042.41	0.9264
3050.95	0.937
3059.48	0.9444
3068.02	0.9497
3076.56	0.954
3085.1	0.9564
3093.63	0.957
3102.17	0.958
3110.71	0.957
3119.25	0.9543
3127.78	0.954
3136.32	0.955
3144.86	0.958
3153.39	0.962
3161.93	0.961
3170.47	0.9596
3179.01	0.959
3187.54	0.963
3196.08	0.9684
3204.62	0.969
3213.16	0.967
3221.69	0.9636
3230.23	0.963
3238.77	0.966
3247.3	0.971
3255.84	0.974
3264.38	0.974
3272.92	0.974
3281.45	0.975
3289.99	0.978
3298.53	0.978
3307.07	0.979
3315.6	0.979
3324.14	0.9796
3332.68	0.979
3341.22	0.979
3349.75	0.982
3358.29	0.983
3366.83	0.982
3375.36	0.978
3383.9	0.974
3392.44	0.977
3400.98	0.9787
3409.51	0.983
3418.05	0.987
3426.59	0.987
3435.13	0.987
3443.66	0.9835
3452.2	0.981
3460.74	0.982
3469.27	0.983
3477.81	0.983
3486.35	0.9795
3494.89	0.978
3503.42	0.9755
3511.96	0.9765
3520.5	0.979
3529.04	0.983
3537.57	0.987
3546.11	0.991
3554.65	0.995
3563.19	0.994
3571.72	0.9879
3580.26	0.9858
3588.8	1.0003
3597.33	1.005
3605.87	1.004
3614.41	1.002
3622.95	1.0058
3631.48	1.004
3640.02	1.0098
3648.56	1.008
3657.1	1.008
3665.63	1.009
3674.17	0.9977
3682.71	0.9926
3691.24	0.995
3699.78	1.0058
3708.32	1.0088
3716.86	1.009
3725.39	1.0064
3733.93	1.0044
3742.47	1.0082
3751.01	1.009
3759.54	1.008
3768.08	1.006
3776.62	1.004
3785.16	1.001
3793.69	1.001
