Infrared Spectrum: p-DIOXANE
Formula: C4H8O2
CAS: 123-91-1
State: SOLUTION (10% IN CCl4 FOR 4000-1330 CM^-^1, 10% IN CS2 FOR 1330-600 CM^-^1)
Class: COBLENTZ III
Instrument: BECKMAN IR-7 (GRATING)
Instrument parameters: GRATING CHANGES AT 3000, 2200, 1150 CM^-^1
Sampling: TRANSMISSION
Path length: 0.011 CM, 0.010 CM
Resolution: 4
Origin: WESTERN REGIONAL RES. USDA
1/CM	TRANSMITTANCE
597.405	0.693
606.487	0.672
615.57	0.27
624.652	0.612
633.735	0.746
642.817	0.765
651.9	0.75
660.982	0.762
670.065	0.783
679.147	0.783
688.23	0.807
697.312	0.811
706.395	0.811
715.477	0.817
724.56	0.824
733.642	0.826
742.725	0.818
751.807	0.827
760.89	0.831
769.972	0.819
779.055	0.828
788.137	0.822
797.22	0.822
806.302	0.82
815.385	0.814
824.467	0.797
833.55	0.756
842.632	0.697
851.715	0.566
860.797	0.4121
869.88	0.01
878.962	0.043
888.045	0.1119
897.127	0.611
906.21	0.726
915.292	0.773
924.375	0.789
933.457	0.81
942.54	0.818
951.622	0.822
960.705	0.829
969.787	0.835
978.87	0.835
987.952	0.829
997.035	0.82
1006.12	0.8
1015.2	0.781
1024.28	0.772
1033.36	0.714
1042.45	0.397
1051.53	0.487
1060.61	0.681
1069.69	0.639
1078.78	0.181
1087.86	0.4039
1096.94	0.394
1106.02	0.188
1115.11	0.001
1124.19	0
1133.27	0.1039
1142.35	0.428
1151.44	0.566
1160.52	0.618
1169.6	0.643
1178.68	0.693
1187.77	0.724
1196.85	0.748
1205.93	0.755
1215.01	0.739
1224.1	0.748
1233.18	0.715
1242.26	0.57
1251.34	0.018
1260.43	0.464
1269.51	0.609
1278.59	0.577
1287.67	0.266
1296.76	0.497
1305.84	0.649
1314.92	0.694
1324	0.666
1333.09	0.724
1342.17	0.729
1351.25	0.715
1360.33	0.426
1369.42	0.498
1378.5	0.656
1387.58	0.718
1396.66	0.727
1405.75	0.733
1414.83	0.739
1423.91	0.727
1432.99	0.67
1442.08	0.351
1451.16	0.222
1460.24	0.517
1469.32	0.644
1478.41	0.693
1487.49	0.708
1496.57	0.689
1505.65	0.655
1514.74	0.62
1523.82	0.587
1532.9	0.532
1541.98	0.457
1551.07	0.426
1560.15	0.46
1569.23	0.529
1578.31	0.557
1587.4	0.58
1596.48	0.632
1605.56	0.684
1614.64	0.715
1623.73	0.734
1632.81	0.75
1641.89	0.759
1650.97	0.767
1660.06	0.772
1669.14	0.775
1678.22	0.775
1687.3	0.774
1696.39	0.764
1705.47	0.74
1714.55	0.707
1723.63	0.664
1732.72	0.553
1741.8	0.614
1750.88	0.72
1759.96	0.726
1769.05	0.735
1778.13	0.764
1787.21	0.781
1796.29	0.785
1805.38	0.786
1814.46	0.786
1823.54	0.787
1832.62	0.788
1841.71	0.786
1850.79	0.782
1859.87	0.781
1868.95	0.783
1878.04	0.782
1887.12	0.774
1896.2	0.757
1905.28	0.754
1914.37	0.779
1923.45	0.776
1932.53	0.776
1941.61	0.768
1950.7	0.743
1959.78	0.691
1968.86	0.726
1977.94	0.715
1987.03	0.645
1996.11	0.732
2005.19	0.7501
2014.27	0.7553
2023.36	0.7602
2032.44	0.7659
2041.52	0.77
2050.6	0.774
2059.69	0.7756
2068.77	0.7772
2077.85	0.7798
2086.93	0.781
2096.02	0.784
2105.1	0.784
2114.18	0.786
2123.26	0.7878
2132.35	0.788
2141.43	0.789
2150.51	0.789
2159.59	0.788
2168.68	0.7852
2177.76	0.7854
2186.84	0.787
2195.92	0.788
2205.01	0.7878
2214.09	0.7842
2223.17	0.7782
2232.25	0.7689
2241.34	0.7682
2250.42	0.781
2259.5	0.7792
2268.58	0.7703
2277.67	0.748
2286.75	0.7496
2295.83	0.7582
2304.91	0.7618
2314	0.7678
2323.08	0.775
2332.16	0.7796
2341.24	0.7786
2350.33	0.7808
2359.41	0.7854
2368.49	0.786
2377.57	0.786
2386.66	0.7803
2395.74	0.7642
2404.82	0.7743
2413.9	0.786
2422.99	0.7874
2432.07	0.7864
2441.15	0.7926
2450.23	0.7932
2459.32	0.786
2468.4	0.783
2477.48	0.7808
2486.56	0.781
2495.65	0.7838
2504.73	0.788
2513.81	0.789
2522.89	0.79
2531.98	0.79
2541.06	0.79
2550.14	0.788
2559.22	0.7826
2568.31	0.7656
2577.39	0.7542
2586.47	0.7572
2595.55	0.7749
2604.64	0.7847
2613.72	0.786
2622.8	0.786
2631.88	0.785
2640.97	0.779
2650.05	0.7703
2659.13	0.7558
2668.21	0.7313
2677.3	0.6723
2686.38	0.6163
2695.46	0.5815
2704.54	0.6494
2713.63	0.7412
2722.71	0.7423
2731.79	0.6986
2740.87	0.629
2749.96	0.555
2759.04	0.6061
2768.12	0.6791
2777.2	0.7107
2786.29	0.724
2795.37	0.7068
2804.45	0.6517
2813.53	0.6068
2822.62	0.5508
2831.7	0.2705
2840.78	0.0661
2849.86	0.012
2858.95	0.0941
2868.03	0.1618
2877.11	0.1349
2886.19	0.0911
2895.28	0.1942
2904.36	0.1141
2913.44	0.0961
2922.52	0.179
2931.61	0.3362
2940.69	0.1694
2949.77	0.0619
2958.85	0.0332
2967.94	0.0891
2977.02	0.1748
2986.1	0.3464
2995.18	0.4994
3004.27	0.586
3013.35	0.6423
3022.43	0.6882
3031.51	0.7116
3040.6	0.725
3049.68	0.7359
3058.76	0.7405
3067.84	0.7455
3076.93	0.7534
3086.01	0.755
3095.09	0.755
3104.17	0.7535
3113.26	0.7499
3122.34	0.7473
3131.42	0.747
3140.5	0.749
3149.59	0.75
3158.67	0.752
3167.75	0.753
3176.83	0.752
3185.92	0.752
3195	0.754
3204.08	0.756
3213.16	0.7553
3222.25	0.752
3231.33	0.752
3240.41	0.754
3249.49	0.758
3258.58	0.759
3267.66	0.759
3276.74	0.759
3285.82	0.759
3294.91	0.76
3303.99	0.76
3313.07	0.7587
3322.15	0.758
3331.24	0.756
3340.32	0.756
3349.4	0.756
3358.48	0.7547
3367.57	0.752
3376.65	0.747
3385.73	0.745
3394.81	0.7443
3403.9	0.743
3412.98	0.743
3422.06	0.7415
3431.14	0.7398
3440.23	0.7339
3449.31	0.7277
3458.39	0.7241
3467.47	0.7225
3476.56	0.7219
3485.64	0.72
3494.72	0.72
3503.8	0.7181
3512.89	0.7185
3521.97	0.7201
3531.05	0.7243
3540.13	0.7283
3549.22	0.7337
3558.3	0.7375
3567.38	0.738
3576.46	0.7397
3585.55	0.7435
3594.63	0.7509
3603.71	0.7569
3612.79	0.761
3621.88	0.7643
3630.96	0.7693
3640.04	0.7766
3649.12	0.7835
3658.21	0.783
3667.29	0.7813
3676.37	0.7787
3685.45	0.7683
3694.54	0.7689
3703.62	0.7811
3712.7	0.7846
3721.78	0.786
3730.87	0.7842
3739.95	0.783
3749.03	0.783
3758.11	0.786
3767.2	0.788
3776.28	0.7863
3785.36	0.7797
3794.44	0.775
3803.53	0.7776
3812.61	0.7842
3821.69	0.786
3830.77	0.7856
3839.86	0.7829
3848.94	0.7794
3858.02	0.781
3867.1	0.783
3876.19	0.7844
3885.27	0.786
3894.35	0.787
3903.43	0.786
3912.52	0.785
3921.6	0.7846
3930.68	0.781
3939.76	0.7764
3948.85	0.7748
3957.93	0.7712
3967.01	0.7597
3976.09	0.756
