Infrared Spectrum: METHANOL
Formula: CH4O
CAS: 67-56-1
State: GAS (70 mmHg, N2 ADDED, TOTAL PRESSURE 600 mmHg)
Class: COBLENTZ
Instrument: DOW KBr FOREPRISM-GRATING
Instrument parameters: GRATING CHANGED AT 5.0, 7.5, 15.0 MICRON
Sampling: TRANSMISSION
Path length: 5 CM
Resolution: 2
Origin: DOW CHEMICAL COMPANY
1/CM	TRANSMITTANCE
463.438	0.939
471.876	0.939
480.313	0.927
488.751	0.939
497.188	0.942
505.626	0.936
514.063	0.94
522.501	0.936
530.938	0.95
539.376	0.952
547.813	0.949
556.251	0.9499
564.688	0.958
573.126	0.96
581.563	0.955
590.001	0.969
598.438	0.972
606.876	0.978
615.313	0.971
623.751	0.982
632.188	0.988
640.626	0.988
649.063	0.982
657.501	0.976
665.938	0.989
674.376	0.992
682.813	0.991
691.251	0.991
699.688	0.981
708.126	0.992
716.564	0.994
725.001	0.998
733.439	0.995
741.876	0.973
750.314	0.992
758.751	0.991
767.189	0.992
775.626	0.994
784.064	0.985
792.501	0.997
800.939	0.992
809.376	0.992
817.814	0.992
826.251	0.988
834.689	0.989
843.126	0.991
851.564	0.992
860.001	0.992
868.439	0.994
876.876	0.989
885.314	0.994
893.751	0.991
902.189	0.988
910.626	0.986
919.064	0.984
927.501	0.978
935.939	0.972
944.377	0.965
952.814	0.956
961.252	0.917
969.689	0.868
978.127	0.743
986.564	0.5411
995.002	0.3211
1003.44	0.16
1011.88	0.114
1020.31	0.131
1028.75	0.282
1037.19	0.238
1045.63	0.138
1054.06	0.05
1062.5	0.062
1070.94	0.1959
1079.38	0.539
1087.81	0.872
1096.25	0.903
1104.69	0.924
1113.13	0.926
1121.56	0.937
1130	0.95
1138.44	0.946
1146.88	0.95
1155.31	0.959
1163.75	0.959
1172.19	0.963
1180.63	0.949
1189.06	0.942
1197.5	0.933
1205.94	0.908
1214.38	0.9
1222.81	0.904
1231.25	0.898
1239.69	0.894
1248.13	0.885
1256.56	0.859
1265	0.852
1273.44	0.85
1281.88	0.849
1290.31	0.836
1298.75	0.795
1307.19	0.765
1315.63	0.756
1324.06	0.694
1332.5	0.719
1340.94	0.743
1349.38	0.658
1357.81	0.652
1366.25	0.615
1374.69	0.602
1383.13	0.629
1391.56	0.665
1400	0.72
1408.44	0.774
1416.88	0.768
1425.32	0.808
1433.75	0.81
1442.19	0.836
1450.63	0.888
1459.07	0.6802
1467.5	0.829
1475.94	0.816
1484.38	0.837
1492.82	0.866
1501.25	0.868
1509.69	0.888
1518.13	0.887
1526.57	0.894
1535	0.901
1543.44	0.908
1551.88	0.923
1560.32	0.929
1568.75	0.942
1577.19	0.949
1585.63	0.955
1594.07	0.959
1602.5	0.96
1610.94	0.962
1619.38	0.965
1627.82	0.969
1636.25	0.971
1644.69	0.972
1653.13	0.972
1661.57	0.973
1670	0.973
1678.44	0.973
1686.88	0.973
1695.32	0.972
1703.75	0.971
1712.19	0.973
1720.63	0.971
1729.07	0.968
1737.5	0.968
1745.94	0.971
1754.38	0.972
1762.82	0.968
1771.25	0.966
1779.69	0.972
1788.13	0.973
1796.57	0.975
1805	0.976
1813.44	0.976
1821.88	0.978
1830.32	0.978
1838.75	0.978
1847.19	0.975
1855.63	0.976
1864.07	0.976
1872.5	0.978
1880.94	0.978
1889.38	0.976
1897.82	0.976
1906.25	0.976
1914.69	0.976
1923.13	0.978
1931.57	0.978
1940	0.976
1948.44	0.976
1956.88	0.979
1965.32	0.979
1973.75	0.979
1982.19	0.978
1990.63	0.976
1999.07	0.975
2007.5	0.971
2015.94	0.9685
2024.38	0.959
2032.82	0.951
2041.25	0.947
2049.69	0.9495
2058.13	0.9402
2066.57	0.8998
2075	0.9375
2083.44	0.8926
2091.88	0.904
2100.32	0.9585
2108.75	0.9718
2117.19	0.973
2125.63	0.9663
2134.07	0.9673
2142.5	0.9749
2150.94	0.975
2159.38	0.975
2167.82	0.9754
2176.25	0.976
2184.69	0.978
2193.13	0.978
2201.57	0.979
2210	0.979
2218.44	0.979
2226.88	0.979
2235.32	0.981
2243.75	0.9838
2252.19	0.984
2260.63	0.984
2269.07	0.982
2277.5	0.982
2285.94	0.982
2294.38	0.984
2302.82	0.984
2311.25	0.984
2319.69	0.984
2328.13	0.984
2336.57	0.984
2345	0.985
2353.44	0.986
2361.88	0.9842
2370.32	0.9817
2378.75	0.9794
2387.19	0.978
2395.63	0.976
2404.07	0.978
2412.5	0.976
2420.94	0.976
2429.38	0.976
2437.82	0.979
2446.25	0.979
2454.69	0.9826
2463.13	0.982
2471.57	0.984
2480	0.9848
2488.44	0.985
2496.88	0.986
2505.32	0.986
2513.75	0.986
2522.19	0.985
2530.63	0.984
2539.07	0.982
2547.5	0.981
2555.94	0.979
2564.38	0.981
2572.82	0.979
2581.25	0.9783
2589.69	0.976
2598.13	0.975
2606.57	0.973
2615.01	0.973
2623.44	0.973
2631.88	0.973
2640.32	0.972
2648.76	0.972
2657.19	0.971
2665.63	0.9696
2674.07	0.969
2682.51	0.971
2690.94	0.972
2699.38	0.972
2707.82	0.971
2716.26	0.969
2724.69	0.9658
2733.13	0.9623
2741.57	0.9577
2750.01	0.9481
2758.44	0.9387
2766.88	0.9294
2775.32	0.9156
2783.76	0.895
2792.19	0.8706
2800.63	0.8049
2809.07	0.7349
2817.51	0.625
2825.94	0.5097
2834.38	0.5196
2842.82	0.5532
2851.26	0.3739
2859.69	0.4785
2868.13	0.3574
2876.57	0.3893
2885.01	0.4451
2893.44	0.4726
2901.88	0.418
2910.32	0.3504
2918.76	0.284
2927.19	0.2324
2935.63	0.2295
2944.07	0.212
2952.51	0.2161
2960.94	0.221
2969.38	0.2016
2977.82	0.189
2986.26	0.2224
2994.69	0.2766
3003.13	0.3733
3011.57	0.3803
3020.01	0.4403
3028.44	0.5191
3036.88	0.5675
3045.32	0.665
3053.76	0.7077
3062.19	0.797
3070.63	0.8355
3079.07	0.8868
3087.51	0.9183
3095.94	0.9418
3104.38	0.9564
3112.82	0.9679
3121.26	0.975
3129.69	0.979
3138.13	0.981
3146.57	0.982
3155.01	0.982
3163.44	0.984
3171.88	0.986
3180.32	0.9879
3188.76	0.988
3197.19	0.988
3205.63	0.988
3214.07	0.988
3222.51	0.9884
3230.94	0.991
3239.38	0.991
3247.82	0.991
3256.26	0.991
3264.69	0.991
3273.13	0.991
3281.57	0.991
3290.01	0.992
3298.44	0.992
3306.88	0.992
3315.32	0.992
3323.76	0.991
3332.19	0.991
3340.63	0.989
3349.07	0.989
3357.51	0.988
3365.94	0.988
3374.38	0.986
3382.82	0.986
3391.26	0.986
3399.69	0.9852
3408.13	0.984
3416.57	0.9823
3425.01	0.9817
3433.44	0.981
3441.88	0.9817
3450.32	0.981
3458.76	0.981
3467.19	0.981
3475.63	0.979
3484.07	0.976
3492.51	0.978
3500.94	0.979
3509.38	0.979
3517.82	0.979
3526.26	0.9774
3534.69	0.975
3543.13	0.976
3551.57	0.973
3560.01	0.9682
3568.44	0.9582
3576.88	0.9452
3585.32	0.9315
3593.76	0.921
3602.19	0.9086
3610.63	0.8948
3619.07	0.8729
3627.51	0.8501
3635.94	0.7736
3644.38	0.6851
3652.82	0.6298
3661.26	0.6509
3669.69	0.6468
3678.13	0.7359
3686.57	0.6295
3695.01	0.62
3703.44	0.6361
3711.88	0.7109
3720.32	0.8226
3728.76	0.892
3737.19	0.9264
3745.63	0.9395
3754.07	0.9563
3762.51	0.9756
3770.94	0.982
3779.38	0.9837
3787.82	0.981
3796.26	0.9784
3804.69	0.979
