Infrared Spectrum: METHANOL
Formula: CH4O
CAS: 67-56-1
State: SOLUTION (2% IN CCl4 FOR 3800-1330, 2% IN CS2 FOR 1330-400 CM^-^1) VS SOLVENT
Class: COBLENTZ II
Instrument: DOW KBr FOREPRISM-GRATING
Instrument parameters: BLAZED AT 3.5, 12.0, 20.0 MICRON, CHANGED AT 5.0, 7.5, 14.9 MICRON
Sampling: TRANSMISSION
Path length: 0.011, 0.011 CM
Resolution: 4
Origin: DOW CHEMICAL COMPANY
1/CM	TRANSMITTANCE
391.115	0.937
399.826	0.943
408.537	0.95
417.247	0.956
425.958	0.952
434.669	0.948
443.38	0.934
452.091	0.926
460.801	0.922
469.512	0.912
478.223	0.908
486.934	0.908
495.645	0.903
504.355	0.89
513.066	0.887
521.777	0.881
530.488	0.87
539.199	0.868
547.909	0.866
556.62	0.862
565.331	0.86
574.042	0.857
582.753	0.855
591.463	0.851
600.174	0.848
608.885	0.844
617.596	0.842
626.307	0.844
635.018	0.842
643.728	0.84
652.439	0.841
661.15	0.845
669.861	0.848
678.572	0.855
687.282	0.862
695.993	0.866
704.704	0.871
713.415	0.878
722.126	0.883
730.836	0.889
739.547	0.897
748.258	0.903
756.969	0.905
765.68	0.911
774.39	0.919
783.101	0.918
791.812	0.927
800.523	0.945
809.234	0.953
817.944	0.956
826.655	0.963
835.366	0.965
844.077	0.968
852.788	0.967
861.498	0.965
870.209	0.968
878.92	0.971
887.631	0.972
896.342	0.971
905.052	0.969
913.763	0.967
922.474	0.965
931.185	0.961
939.896	0.956
948.606	0.946
957.317	0.937
966.028	0.927
974.739	0.905
983.45	0.879
992.16	0.841
1000.87	0.743
1009.58	0.577
1018.29	0.326
1027	0.172
1035.71	0.142
1044.43	0.3701
1053.14	0.673
1061.85	0.803
1070.56	0.838
1079.27	0.852
1087.98	0.855
1096.69	0.849
1105.4	0.836
1114.11	0.833
1122.82	0.852
1131.53	0.881
1140.24	0.897
1148.95	0.911
1157.67	0.913
1166.38	0.913
1175.09	0.913
1183.8	0.913
1192.51	0.912
1201.22	0.911
1209.93	0.908
1218.64	0.908
1227.35	0.907
1236.06	0.905
1244.77	0.904
1253.48	0.9
1262.2	0.896
1270.91	0.893
1279.62	0.892
1288.33	0.89
1297.04	0.882
1305.75	0.872
1314.46	0.863
1323.17	0.849
1331.88	0.844
1340.59	0.844
1349.3	0.841
1358.01	0.83
1366.73	0.814
1375.44	0.801
1384.15	0.775
1392.86	0.767
1401.57	0.759
1410.28	0.758
1418.99	0.758
1427.7	0.767
1436.41	0.774
1445.12	0.751
1453.83	0.728
1462.54	0.76
1471.25	0.775
1479.97	0.799
1488.68	0.844
1497.39	0.871
1506.1	0.885
1514.81	0.893
1523.52	0.903
1532.23	0.909
1540.94	0.912
1549.65	0.919
1558.36	0.924
1567.07	0.928
1575.78	0.933
1584.5	0.939
1593.21	0.943
1601.92	0.95
1610.63	0.954
1619.34	0.956
1628.05	0.956
1636.76	0.959
1645.47	0.964
1654.18	0.965
1662.89	0.968
1671.6	0.971
1680.31	0.971
1689.02	0.971
1697.74	0.972
1706.45	0.972
1715.16	0.971
1723.87	0.972
1732.58	0.975
1741.29	0.976
1750	0.978
1758.71	0.978
1767.42	0.979
1776.13	0.982
1784.84	0.983
1793.55	0.986
1802.27	0.986
1810.98	0.986
1819.69	0.989
1828.4	0.989
1837.11	0.987
1845.82	0.989
1854.53	0.989
1863.24	0.989
1871.95	0.987
1880.66	0.989
1889.37	0.989
1898.08	0.987
1906.79	0.987
1915.51	0.986
1924.22	0.987
1932.93	0.987
1941.64	0.986
1950.35	0.987
1959.06	0.984
1967.77	0.983
1976.48	0.983
1985.19	0.98
1993.9	0.978
2002.61	0.9745
2011.32	0.971
2020.04	0.969
2028.75	0.9635
2037.46	0.96
2046.17	0.96
2054.88	0.964
2063.59	0.973
2072.3	0.978
2081.01	0.979
2089.72	0.982
2098.43	0.9825
2107.14	0.984
2115.85	0.984
2124.57	0.983
2133.28	0.983
2141.99	0.983
2150.7	0.983
2159.41	0.9835
2168.12	0.9835
2176.83	0.983
2185.54	0.9835
2194.25	0.983
2202.96	0.979
2211.67	0.979
2220.38	0.979
2229.09	0.978
2237.81	0.979
2246.52	0.982
2255.23	0.982
2263.94	0.983
2272.65	0.983
2281.36	0.984
2290.07	0.984
2298.78	0.984
2307.49	0.986
2316.2	0.9896
2324.91	0.9849
2333.62	0.984
2342.34	0.984
2351.05	0.984
2359.76	0.984
2368.47	0.986
2377.18	0.9866
2385.89	0.9789
2394.6	0.9754
2403.31	0.974
2412.02	0.972
2420.73	0.971
2429.44	0.969
2438.15	0.968
2446.86	0.9674
2455.58	0.964
2464.29	0.961
2473	0.96
2481.71	0.9548
2490.42	0.952
2499.13	0.948
2507.84	0.9468
2516.55	0.9456
2525.26	0.946
2533.97	0.948
2542.68	0.9496
2551.39	0.95
2560.11	0.9494
2568.82	0.949
2577.53	0.948
2586.24	0.9486
2594.95	0.9512
2603.66	0.9526
2612.37	0.954
2621.08	0.9566
2629.79	0.96
2638.5	0.959
2647.21	0.96
2655.92	0.96
2664.63	0.96
2673.35	0.9578
2682.06	0.957
2690.77	0.957
2699.48	0.954
2708.19	0.95
2716.9	0.948
2725.61	0.941
2734.32	0.9321
2743.03	0.9248
2751.74	0.9091
2760.45	0.8955
2769.16	0.8814
2777.88	0.8634
2786.59	0.8458
2795.3	0.8176
2804.01	0.7798
2812.72	0.7174
2821.43	0.6135
2830.14	0.4747
2838.85	0.5475
2847.56	0.68
2856.27	0.7379
2864.98	0.7364
2873.69	0.7271
2882.41	0.7084
2891.12	0.6728
2899.83	0.6273
2908.54	0.5492
2917.25	0.502
2925.96	0.502
2934.67	0.4668
2943.38	0.3817
2952.09	0.4154
2960.8	0.4853
2969.51	0.549
2978.22	0.551
2986.93	0.5673
2995.65	0.626
3004.36	0.6919
3013.07	0.743
3021.78	0.782
3030.49	0.802
3039.2	0.8153
3047.91	0.8297
3056.62	0.8367
3065.33	0.84
3074.04	0.841
3082.75	0.841
3091.46	0.841
3100.18	0.8373
3108.89	0.8303
3117.6	0.822
3126.31	0.8143
3135.02	0.8009
3143.73	0.7902
3152.44	0.7745
3161.15	0.7569
3169.86	0.7354
3178.57	0.7119
3187.28	0.6939
3195.99	0.6681
3204.7	0.6432
3213.42	0.6145
3222.13	0.5897
3230.84	0.5551
3239.55	0.519
3248.26	0.4931
3256.97	0.4627
3265.68	0.4352
3274.39	0.403
3283.1	0.3787
3291.81	0.3609
3300.52	0.3469
3309.23	0.3373
3317.95	0.3293
3326.66	0.3236
3335.37	0.325
3344.08	0.327
3352.79	0.331
3361.5	0.3375
3370.21	0.3457
3378.92	0.3582
3387.63	0.3707
3396.34	0.3885
3405.05	0.4102
3413.76	0.4264
3422.47	0.4452
3431.19	0.466
3439.9	0.4819
3448.61	0.5042
3457.32	0.5222
3466.03	0.5442
3474.74	0.5635
3483.45	0.5892
3492.16	0.605
3500.87	0.627
3509.58	0.649
3518.29	0.672
3527	0.701
3535.72	0.7273
3544.43	0.757
3553.14	0.7861
3561.85	0.8193
3570.56	0.8463
3579.27	0.867
3587.98	0.8825
3596.69	0.8938
3605.4	0.9025
3614.11	0.9032
3622.82	0.8947
3631.53	0.8681
3640.24	0.8017
3648.96	0.7155
3657.67	0.8178
3666.38	0.907
3675.09	0.9381
3683.8	0.9498
3692.51	0.957
3701.22	0.9638
3709.93	0.972
3718.64	0.9758
3727.35	0.98
3736.06	0.9838
3744.77	0.9898
3753.49	0.9906
3762.2	0.9862
3770.91	0.9868
3779.62	0.9898
