Infrared Spectrum: ETHANOL
Formula: C2H6O
CAS: 64-17-5
State: SOLUTION (10% IN CCl4 FOR 3800-1340, 10% IN CS2 FOR 1340-400 CM^-^1)
Class: COBLENTZ III
Instrument: DOW KBr FOREPRISM-GRATING
Instrument parameters: BLAZED AT 3.5, 12.0, 20.0 MICRON, CHANGED AT 5.0, 7.5, 14.9 MICRON
Sampling: TRANSMISSION
Path length: 0.011, 0.010 CM
Resolution: 4
Origin: DOW CHEMICAL COMPANY
1/CM	TRANSMITTANCE
392.049	0.817
400.755	0.825
409.461	0.832
418.166	0.811
426.872	0.766
435.578	0.774
444.284	0.811
452.989	0.845
461.695	0.856
470.401	0.856
479.107	0.856
487.812	0.848
496.518	0.836
505.224	0.819
513.93	0.8
522.635	0.78
531.341	0.755
540.047	0.732
548.753	0.714
557.458	0.694
566.164	0.671
574.87	0.653
583.576	0.631
592.281	0.615
600.987	0.601
609.693	0.585
618.399	0.571
627.104	0.56
635.81	0.553
644.516	0.549
653.222	0.552
661.927	0.562
670.633	0.563
679.339	0.564
688.045	0.574
696.75	0.589
705.456	0.603
714.162	0.62
722.868	0.643
731.573	0.663
740.279	0.686
748.985	0.709
757.691	0.743
766.396	0.78
775.102	0.8
783.808	0.822
792.514	0.81
801.219	0.729
809.925	0.728
818.631	0.856
827.337	0.899
836.042	0.926
844.748	0.948
853.454	0.942
862.16	0.897
870.865	0.7079
879.571	0.139
888.277	0.376
896.983	0.774
905.688	0.914
914.394	0.967
923.1	0.984
931.806	0.993
940.511	0.991
949.217	0.986
957.923	0.979
966.629	0.965
975.334	0.949
984.04	0.922
992.746	0.884
1001.45	0.833
1010.16	0.747
1018.86	0.601
1027.57	0.357
1036.27	0.094
1044.98	0.009
1053.69	0.02
1062.39	0.165
1071.1	0.155
1079.8	0.08
1088.51	0.031
1097.21	0.113
1105.92	0.3771
1114.63	0.582
1123.33	0.661
1132.04	0.712
1140.74	0.748
1149.45	0.774
1158.16	0.807
1166.86	0.849
1175.57	0.863
1184.27	0.866
1192.98	0.859
1201.68	0.855
1210.39	0.839
1219.1	0.811
1227.8	0.773
1236.51	0.714
1245.21	0.667
1253.92	0.646
1262.62	0.59
1271.33	0.517
1280.04	0.581
1288.74	0.587
1297.45	0.536
1306.15	0.481
1314.86	0.443
1323.56	0.431
1332.27	0.455
1340.98	0.493
1349.68	0.527
1358.39	0.525
1367.09	0.488
1375.8	0.321
1384.5	0.271
1393.21	0.332
1401.92	0.361
1410.62	0.365
1419.33	0.371
1428.03	0.384
1436.74	0.395
1445.44	0.356
1454.15	0.345
1462.86	0.444
1471.56	0.551
1480.27	0.575
1488.97	0.603
1497.68	0.744
1506.39	0.813
1515.09	0.844
1523.8	0.871
1532.5	0.899
1541.21	0.924
1549.91	0.933
1558.62	0.934
1567.33	0.933
1576.03	0.934
1584.74	0.937
1593.44	0.935
1602.15	0.931
1610.85	0.93
1619.56	0.926
1628.27	0.922
1636.97	0.927
1645.68	0.934
1654.38	0.939
1663.09	0.944
1671.79	0.95
1680.5	0.956
1689.21	0.957
1697.91	0.957
1706.62	0.961
1715.32	0.961
1724.03	0.964
1732.73	0.965
1741.44	0.964
1750.15	0.961
1758.85	0.964
1767.56	0.971
1776.26	0.978
1784.97	0.983
1793.68	0.989
1802.38	0.991
1811.09	0.991
1819.79	0.994
1828.5	0.998
1837.2	0.998
1845.91	0.997
1854.62	0.997
1863.32	0.995
1872.03	0.993
1880.73	0.991
1889.44	0.989
1898.14	0.98
1906.85	0.972
1915.56	0.948
1924.26	0.914
1932.97	0.933
1941.67	0.971
1950.38	0.983
1959.08	0.986
1967.79	0.987
1976.5	0.989
1985.2	0.993
1993.91	0.994
2002.61	0.993
2011.32	0.993
2020.02	0.9905
2028.73	0.993
2037.44	0.993
2046.14	0.993
2054.85	0.993
2063.55	0.991
2072.26	0.9879
2080.96	0.9835
2089.67	0.979
2098.38	0.979
2107.08	0.983
2115.79	0.9777
2124.49	0.9728
2133.2	0.9716
2141.91	0.9756
2150.61	0.979
2159.32	0.983
2168.02	0.982
2176.73	0.982
2185.43	0.9826
2194.14	0.983
2202.85	0.983
2211.55	0.9807
2220.26	0.982
2228.96	0.979
2237.67	0.9783
2246.37	0.9713
2255.08	0.968
2263.79	0.971
2272.49	0.979
2281.2	0.983
2289.9	0.986
2298.61	0.986
2307.31	0.984
2316.02	0.9783
2324.73	0.9689
2333.43	0.967
2342.14	0.967
2350.84	0.967
2359.55	0.965
2368.25	0.967
2376.96	0.967
2385.67	0.9605
2394.37	0.9532
2403.08	0.9442
2411.78	0.941
2420.49	0.948
2429.19	0.95
2437.9	0.95
2446.61	0.948
2455.31	0.9388
2464.02	0.9314
2472.72	0.9196
2481.43	0.9124
2490.14	0.9013
2498.84	0.899
2507.55	0.897
2516.25	0.897
2524.96	0.8903
2533.66	0.889
2542.37	0.892
2551.08	0.897
2559.78	0.9027
2568.49	0.903
2577.19	0.901
2585.9	0.897
2594.6	0.893
2603.31	0.892
2612.02	0.8864
2620.72	0.881
2629.43	0.881
2638.13	0.879
2646.84	0.8711
2655.54	0.869
2664.25	0.8592
2672.96	0.8442
2681.66	0.8252
2690.37	0.806
2699.07	0.7831
2707.78	0.7611
2716.48	0.7292
2725.19	0.718
2733.9	0.7101
2742.6	0.706
2751.31	0.705
2760.01	0.705
2768.72	0.698
2777.43	0.683
2786.13	0.66
2794.84	0.6308
2803.54	0.5853
2812.25	0.5269
2820.95	0.4985
2829.66	0.4548
2838.37	0.4153
2847.07	0.3686
2855.78	0.2879
2864.48	0.1888
2873.19	0.1128
2881.89	0.1059
2890.6	0.1061
2899.31	0.1289
2908.01	0.1582
2916.72	0.1541
2925.42	0.1456
2934.13	0.1666
2942.83	0.1982
2951.54	0.2253
2960.25	0.1511
2968.95	0.037
2977.66	0.0153
2986.36	0.0614
2995.07	0.2533
3003.77	0.4608
3012.48	0.5543
3021.19	0.6157
3029.89	0.6414
3038.6	0.6532
3047.3	0.656
3056.01	0.6528
3064.71	0.646
3073.42	0.6414
3082.13	0.6271
3090.83	0.6121
3099.54	0.5971
3108.24	0.5743
3116.95	0.548
3125.66	0.5135
3134.36	0.4902
3143.07	0.4615
3151.77	0.4308
3160.48	0.3958
3169.18	0.3668
3177.89	0.3392
3186.6	0.2971
3195.3	0.2551
3204.01	0.2162
3212.71	0.1888
3221.42	0.1631
3230.12	0.1308
3238.83	0.111
3247.54	0.0953
3256.24	0.0743
3264.95	0.0583
3273.65	0.0466
3282.36	0.0396
3291.06	0.0333
3299.77	0.028
3308.48	0.0263
3317.18	0.024
3325.89	0.024
3334.59	0.025
3343.3	0.0258
3352	0.028
3360.71	0.03
3369.42	0.032
3378.12	0.035
3386.83	0.0408
3395.53	0.0494
3404.24	0.057
3412.94	0.0644
3421.65	0.0748
3430.36	0.0888
3439.06	0.1059
3447.77	0.1215
3456.47	0.1414
3465.18	0.162
3473.89	0.185
3482.59	0.2145
3491.3	0.242
3500	0.277
3508.71	0.3235
3517.41	0.3602
3526.12	0.4096
3534.83	0.4697
3543.53	0.5229
3552.24	0.5844
3560.94	0.6359
3569.65	0.6842
3578.35	0.731
3587.06	0.7774
3595.77	0.8066
3604.47	0.813
3613.18	0.7944
3621.88	0.7338
3630.59	0.6529
3639.29	0.6569
3648	0.7538
3656.71	0.8785
3665.41	0.9172
3674.12	0.9184
3682.82	0.9225
3691.53	0.9481
3700.23	0.9625
3708.94	0.9746
3717.65	0.979
3726.35	0.9837
3735.06	0.9883
3743.76	0.991
3752.47	0.991
3761.18	0.991
3769.88	0.991
3778.59	0.991
