Infrared Spectrum: ETHANOL
Formula: C2H6O
CAS: 64-17-5
State: GAS (30 mmHg, N2 ADDED, TOTAL PRESSURE 600 mmHg)
Class: COBLENTZ
Instrument: DOW KBr FOREPRISM-GRATING
Instrument parameters: GRATING CHANGED AT 5.0, 7.5, 15.0 MICRON
Sampling: TRANSMISSION
Path length: 5 CM
Resolution: 2
Origin: DOW CHEMICAL COMPANY
1/CM	TRANSMITTANCE
461.563	0.966
470	0.968
478.438	0.97
486.875	0.972
495.313	0.972
503.75	0.97
512.188	0.97
520.625	0.969
529.063	0.969
537.5	0.97
545.938	0.97
554.375	0.973
562.813	0.979
571.25	0.982
579.688	0.988
588.125	0.991
596.563	0.994
605	0.995
613.438	0.997
621.875	1
630.313	1.002
638.75	1.005
647.188	1.007
655.625	1.007
664.063	1.008
672.5	1.007
680.938	1.004
689.375	1.008
697.813	1.01
706.25	1.013
714.688	1.014
723.125	1.017
731.563	1.013
740	1.007
748.438	1.007
756.875	1.005
765.313	1.005
773.75	1
782.188	0.994
790.625	0.989
799.063	0.986
807.5	0.984
815.938	0.985
824.375	0.986
832.813	0.985
841.25	0.981
849.688	0.963
858.125	0.905
866.563	0.822
875	0.799
883.438	0.744
891.875	0.736
900.313	0.783
908.75	0.8509
917.188	0.936
925.625	0.97
934.063	0.985
942.5	0.991
950.938	0.994
959.375	0.991
967.813	0.984
976.25	0.966
984.688	0.937
993.125	0.883
1001.56	0.7871
1010	0.667
1018.44	0.542
1026.88	0.409
1035.31	0.332
1043.75	0.22
1052.19	0.183
1060.63	0.2127
1069.06	0.1779
1077.5	0.19
1085.94	0.2959
1094.38	0.492
1102.81	0.559
1111.25	0.674
1119.69	0.793
1128.13	0.879
1136.56	0.92
1145	0.94
1153.44	0.956
1161.88	0.959
1170.31	0.953
1178.75	0.936
1187.19	0.922
1195.63	0.901
1204.06	0.875
1212.5	0.822
1220.94	0.707
1229.38	0.649
1237.81	0.681
1246.25	0.672
1254.69	0.639
1263.13	0.7019
1271.56	0.787
1280	0.853
1288.44	0.88
1296.88	0.896
1305.31	0.899
1313.75	0.899
1322.19	0.895
1330.63	0.89
1339.06	0.876
1347.5	0.851
1355.94	0.793
1364.38	0.694
1372.81	0.549
1381.25	0.478
1389.69	0.514
1398.13	0.3641
1406.56	0.505
1415	0.5839
1423.44	0.7449
1431.88	0.805
1440.31	0.816
1448.75	0.818
1457.19	0.812
1465.63	0.866
1474.06	0.872
1482.5	0.883
1490.94	0.906
1499.38	0.931
1507.81	0.943
1516.25	0.962
1524.69	0.973
1533.13	0.984
1541.56	0.988
1550	0.994
1558.44	0.989
1566.88	0.994
1575.31	0.994
1583.75	0.994
1592.19	0.988
1600.63	0.991
1609.06	0.988
1617.5	0.988
1625.94	0.988
1634.38	0.989
1642.81	0.988
1651.25	0.986
1659.69	0.986
1668.13	0.989
1676.56	0.986
1685	0.984
1693.44	0.988
1701.88	0.986
1710.31	0.985
1718.75	0.982
1727.19	0.985
1735.63	0.984
1744.06	0.984
1752.5	0.984
1760.94	0.984
1769.38	0.982
1777.81	0.986
1786.25	0.988
1794.69	0.988
1803.13	0.994
1811.56	0.994
1820	0.995
1828.44	0.997
1836.88	0.995
1845.31	0.995
1853.75	0.997
1862.19	0.995
1870.63	0.992
1879.06	0.991
1887.5	0.989
1895.94	0.985
1904.38	0.981
1912.81	0.978
1921.25	0.973
1929.69	0.97
1938.13	0.973
1946.56	0.978
1955	0.985
1963.44	0.989
1971.88	0.992
1980.31	0.995
1988.75	1
1997.19	1.001
2005.63	1.001
2014.06	1.001
2022.5	1.001
2030.94	1.001
2039.38	1.001
2047.81	1.0016
2056.25	1.001
2064.69	1
2073.13	1
2081.56	0.9976
2090	0.995
2098.44	0.992
2106.88	0.9881
2115.31	0.988
2123.75	0.985
2132.19	0.984
2140.63	0.9858
2149.06	0.991
2157.5	0.9936
2165.94	0.994
2174.38	0.994
2182.81	0.994
2191.25	0.994
2199.69	0.995
2208.13	0.998
2216.56	1
2225	1
2233.44	1
2241.88	0.998
2250.31	0.995
2258.75	0.9926
2267.19	0.9906
2275.63	0.989
2284.06	0.992
2292.5	0.995
2300.94	1
2309.38	1.001
2317.81	1.001
2326.25	1.001
2334.69	0.9998
2343.13	0.994
2351.56	0.9954
2360	1.001
2368.44	1.001
2376.88	1
2385.31	0.998
2393.75	0.997
2402.19	0.997
2410.63	0.9945
2419.06	0.992
2427.5	0.992
2435.94	0.994
2444.38	0.995
2452.81	0.995
2461.25	0.997
2469.69	0.997
2478.13	0.998
2486.56	0.998
2495	1
2503.44	1
2511.88	1.001
2520.31	1.001
2528.75	1.001
2537.19	1.001
2545.63	1.001
2554.06	1.001
2562.5	1.001
2570.94	1
2579.38	1
2587.81	1
2596.25	0.998
2604.69	0.9972
2613.13	0.992
2621.56	0.991
2630	0.988
2638.44	0.9865
2646.88	0.985
2655.31	0.984
2663.75	0.982
2672.19	0.981
2680.63	0.979
2689.06	0.978
2697.5	0.975
2705.94	0.9707
2714.38	0.9647
2722.81	0.9577
2731.25	0.9518
2739.69	0.9388
2748.13	0.9339
2756.56	0.9288
2765	0.922
2773.44	0.9174
2781.88	0.9118
2790.31	0.8993
2798.75	0.889
2807.19	0.8784
2815.63	0.8659
2824.06	0.8495
2832.5	0.825
2840.94	0.7851
2849.38	0.7033
2857.81	0.6465
2866.25	0.5434
2874.69	0.452
2883.13	0.3895
2891.56	0.3457
2900	0.3244
2908.44	0.3092
2916.88	0.3588
2925.31	0.3694
2933.75	0.3691
2942.19	0.3606
2950.63	0.3352
2959.06	0.2902
2967.5	0.2689
2975.94	0.244
2984.38	0.247
2992.81	0.2471
3001.25	0.3309
3009.69	0.427
3018.13	0.5731
3026.56	0.7109
3035	0.805
3043.44	0.9175
3051.88	0.9635
3060.31	0.9817
3068.75	0.9887
3077.19	0.992
3085.63	0.995
3094.06	0.995
3102.5	0.997
3110.94	0.998
3119.38	0.9993
3127.81	1
3136.25	1
3144.69	1
3153.13	1
3161.56	1
3170	1.001
3178.44	1
3186.88	0.998
3195.31	0.9969
3203.75	0.994
3212.19	0.992
3220.63	0.991
3229.06	0.9921
3237.5	0.995
3245.94	0.998
3254.38	1.0005
3262.81	1.002
3271.25	1.0045
3279.69	1.005
3288.13	1.005
3296.56	1.007
3305	1.007
3313.44	1.007
3321.88	1.007
3330.31	1.007
3338.75	1.007
3347.19	1.007
3355.63	1.005
3364.06	1.005
3372.5	1.0039
3380.94	1.0042
3389.38	1.0027
3397.81	1.001
3406.25	1.001
3414.69	1.002
3423.13	1.004
3431.56	1.004
3440	1.0017
3448.44	1.001
3456.88	1
3465.31	0.998
3473.75	1
3482.19	1.001
3490.63	1.001
3499.06	1.002
3507.5	1.002
3515.94	1.004
3524.38	1.0036
3532.81	1.0013
3541.25	1
3549.69	1
3558.13	0.995
3566.56	0.991
3575	0.991
3583.44	0.9884
3591.88	0.985
3600.31	0.9792
3608.75	0.9678
3617.19	0.946
3625.63	0.9084
3634.06	0.852
3642.5	0.7822
3650.94	0.726
3659.38	0.7226
3667.81	0.74
3676.25	0.75
3684.69	0.7804
3693.13	0.8926
3701.56	0.9572
3710	0.9848
3718.44	0.9943
3726.88	1.0009
3735.31	1
3743.75	1.0009
3752.19	1.001
3760.63	1.001
3769.06	1
3777.5	0.998
3785.94	0.998
3794.38	1
3802.81	1
