Infrared Spectrum: Ethanol
Formula: C2H6O
CAS: 64-17-5
State: gas
Melting point: -117.3 C
Boiling point: 78.5 C
Class: IUPAC A
Instrument: IFS66V (Bruker)
Instrument parameters: KBr Beam splitter; MCT Detector; Multipass cell
Sampling: 1 L/min Flow
Resolution: 0.1250
Temperature: 23 C
Pressure: 101.3 kPa
Origin: NIST, Anayltical Chemistry Division, 301-975-3108
cm-1	(micromol/mol)-1m-1 (base 10)
574.988	4.48094e-06
583.546	4.21658e-06
592.103	2.52698e-06
600.661	2.29779e-06
609.219	3.7754e-06
617.776	3.07017e-06
626.334	3.23326e-06
634.891	2.75993e-06
643.449	2.43721e-06
652.007	2.00838e-06
660.564	7.76893e-07
669.122	2.19236e-06
677.68	1.63553e-06
686.237	9.02493e-07
694.795	8.26729e-07
703.352	8.78541e-07
711.91	4.76599e-07
720.468	6.65023e-07
729.025	8.75539e-07
737.583	9.41068e-07
746.141	9.03895e-07
754.698	9.45163e-07
763.256	1.07758e-06
771.813	2.12709e-06
780.371	3.34306e-06
788.929	4.1237e-06
797.486	4.80672e-06
806.044	4.14787e-06
814.602	4.04973e-06
823.159	4.15793e-06
831.717	3.58934e-06
840.274	4.92697e-06
848.832	9.08234e-06
857.39	1.92211e-05
865.947	3.49958e-05
874.505	3.44031e-05
883.063	4.49633e-05
891.62	6.51145e-05
900.178	4.07993e-05
908.735	2.40512e-05
917.293	1.08001e-05
925.851	6.43797e-06
934.408	4.81495e-06
942.966	3.88378e-06
951.524	4.04885e-06
960.081	4.64276e-06
968.639	5.91002e-06
977.196	8.27158e-06
985.754	1.3157e-05
994.312	2.20215e-05
1002.87	3.97535e-05
1011.43	7.64337e-05
1019.98	9.82437e-05
1028.54	0.000139376
1037.1	0.000206651
1045.66	0.000244788
1054.22	0.00025917
1062.77	0.000237147
1071.33	0.000245926
1079.89	0.000236033
1088.45	0.000155862
1097	9.94062e-05
1105.56	8.10797e-05
1114.12	4.87063e-05
1122.68	2.83966e-05
1131.23	2.03692e-05
1139.79	1.37508e-05
1148.35	1.08399e-05
1156.91	1.0099e-05
1165.46	9.97471e-06
1174.02	1.0611e-05
1182.58	1.31507e-05
1191.14	1.59022e-05
1199.69	2.02271e-05
1208.25	2.82116e-05
1216.81	4.52681e-05
1225.37	6.64734e-05
1233.93	6.4089e-05
1242.48	6.04998e-05
1251.04	7.0729e-05
1259.6	6.64143e-05
1268.16	4.05757e-05
1276.71	2.71774e-05
1285.27	1.96219e-05
1293.83	1.63781e-05
1302.39	1.47655e-05
1310.94	1.50391e-05
1319.5	1.50895e-05
1328.06	1.55043e-05
1336.62	1.70588e-05
1345.17	1.87463e-05
1353.73	2.42296e-05
1362.29	3.49117e-05
1370.85	5.65305e-05
1379.4	8.13865e-05
1387.96	7.23068e-05
1396.52	7.0993e-05
1405.08	9.68036e-05
1413.64	7.36011e-05
1422.19	4.04843e-05
1430.75	2.90278e-05
1439.31	2.76477e-05
1447.87	2.91153e-05
1456.42	2.22174e-05
1464.98	1.9497e-05
1473.54	1.93422e-05
1482.1	1.72183e-05
1490.65	1.33618e-05
1499.21	1.00791e-05
1507.77	7.38876e-06
1516.33	4.56409e-06
1524.88	2.68297e-06
1533.44	1.74643e-06
1542	9.74346e-07
1550.56	6.95909e-07
1559.11	7.0602e-07
1567.67	4.5593e-07
1576.23	3.958e-07
1584.79	2.46025e-07
1593.35	2.61442e-07
1601.9	4.93112e-07
1610.46	4.40957e-07
1619.02	2.85412e-07
1627.58	3.45063e-07
1636.13	3.04966e-07
1644.69	4.2874e-07
1653.25	1.37253e-07
1661.81	4.63607e-07
1670.36	6.10396e-07
1678.92	5.48242e-07
1687.48	4.91862e-07
1696.04	4.40051e-07
1704.59	3.64032e-07
1713.15	3.61512e-07
1721.71	5.46696e-07
1730.27	1.01716e-07
1738.83	3.79744e-07
1747.38	3.89528e-07
1755.94	5.56869e-07
1764.5	4.13095e-07
1773.06	6.1473e-07
1781.61	4.13666e-07
1790.17	1.28323e-07
1798.73	1.1832e-07
1807.29	7.7445e-08
1815.84	-1.43502e-07
1824.4	-1.52789e-07
1832.96	-2.76423e-07
1841.52	-1.9175e-07
1850.07	-9.90728e-08
1858.63	-5.11123e-08
1867.19	5.76965e-08
1875.75	1.31767e-07
1884.3	4.76599e-07
1892.86	8.95617e-07
1901.42	1.79788e-06
1909.98	2.41549e-06
1918.54	2.90913e-06
1927.09	3.89976e-06
1935.65	3.38486e-06
1944.21	3.42468e-06
1952.77	2.13364e-06
1961.32	1.50456e-06
1969.88	8.36576e-07
1978.44	6.33762e-07
1987	6.41124e-07
1995.55	2.14445e-07
2004.11	-1.95997e-07
2012.67	-1.94216e-07
2021.23	-2.76838e-07
2029.78	-4.04905e-07
2038.34	-3.74994e-07
2046.9	-4.53133e-07
2055.46	-3.47096e-07
2064.01	-1.07577e-07
2072.57	-2.13149e-07
2081.13	6.34212e-08
2089.69	4.37659e-07
2098.25	8.72676e-07
2106.8	1.26469e-06
2115.36	1.4298e-06
2123.92	1.92488e-06
2132.48	1.14905e-06
2141.03	7.26453e-07
2149.59	3.67534e-07
2158.15	8.47942e-07
2166.71	2.14676e-07
2175.26	4.30204e-07
2183.82	5.05709e-07
2192.38	2.72951e-07
2200.94	2.78233e-08
2209.49	4.06262e-07
2218.05	3.86356e-08
2226.61	3.81522e-07
2235.17	3.85755e-07
2243.72	8.88441e-07
2252.28	1.08114e-06
2260.84	1.60177e-06
2269.4	1.4069e-06
2277.96	1.48766e-06
2286.51	1.27583e-06
2295.07	6.61915e-07
2303.63	7.52238e-07
2312.19	7.73114e-07
2320.74	1.1325e-06
2329.3	9.69513e-07
2337.86	2.24392e-06
2346.42	8.86163e-07
2354.97	8.86021e-07
2363.53	9.18472e-07
2372.09	9.3754e-07
2380.65	1.41316e-06
2389.2	1.11481e-06
2397.76	1.50641e-06
2406.32	1.53812e-06
2414.88	1.76351e-06
2423.44	1.38214e-06
2431.99	1.30564e-06
2440.55	1.01994e-06
2449.11	7.46456e-07
2457.67	8.29296e-07
2466.22	9.5661e-07
2474.78	9.99984e-07
2483.34	9.06958e-07
2491.9	1.09012e-06
2500.45	6.32026e-07
2509.01	6.56583e-07
2517.57	6.90644e-07
2526.13	5.16628e-07
2534.68	6.41201e-07
2543.24	6.20292e-07
2551.8	5.4097e-07
2560.36	7.12318e-07
2568.91	7.25267e-07
2577.47	1.01093e-06
2586.03	1.20085e-06
2594.59	1.51189e-06
2603.15	1.59647e-06
2611.7	1.86483e-06
2620.26	2.33637e-06
2628.82	2.42452e-06
2637.38	2.61779e-06
2645.93	2.9049e-06
2654.49	3.38324e-06
2663.05	3.44488e-06
2671.61	3.69844e-06
2680.16	3.83643e-06
2688.72	3.89445e-06
2697.28	4.33136e-06
2705.84	5.22924e-06
2714.39	5.77319e-06
2722.95	6.82567e-06
2731.51	8.00122e-06
2740.07	9.22944e-06
2748.62	1.01177e-05
2757.18	1.0747e-05
2765.74	1.12988e-05
2774.3	1.23611e-05
2782.86	1.3855e-05
2791.41	1.49931e-05
2799.97	1.70045e-05
2808.53	1.81802e-05
2817.09	2.08771e-05
2825.64	2.48843e-05
2834.2	3.05941e-05
2842.76	4.02764e-05
2851.32	5.54242e-05
2859.87	7.86185e-05
2868.43	0.000107406
2876.99	0.000124033
2885.55	0.000150942
2894.1	0.000158
2902.66	0.000172233
2911.22	0.000168229
2919.78	0.000150247
2928.34	0.000143215
2936.89	0.000139717
2945.45	0.000145389
2954.01	0.000161485
2962.57	0.000184115
2971.12	0.000216986
2979.68	0.000203644
2988.24	0.000211446
2996.8	0.000171035
3005.35	0.00012955
3013.91	8.65424e-05
3022.47	5.27413e-05
3031.03	2.8108e-05
3039.58	1.26371e-05
3048.14	5.25589e-06
3056.7	1.84807e-06
3065.26	1.12158e-06
3073.81	7.09454e-07
3082.37	4.55364e-07
3090.93	7.23734e-07
3099.49	4.46056e-07
3108.05	6.95251e-07
3116.6	5.75139e-07
3125.16	7.35374e-07
3133.72	8.53774e-07
3142.28	4.50812e-07
3150.83	6.05312e-07
3159.39	8.56168e-07
3167.95	1.22378e-06
3176.51	1.06035e-06
3185.06	1.30656e-06
3193.62	1.35481e-06
3202.18	1.62386e-06
3210.74	1.92024e-06
3219.29	2.13317e-06
3227.85	1.96444e-06
3236.41	1.66339e-06
3244.97	9.47705e-07
3253.52	1.04884e-06
3262.08	2.4055e-07
3270.64	3.61819e-07
3279.2	4.48028e-08
3287.76	-7.23901e-09
3296.31	-4.16457e-07
3304.87	-8.11593e-08
3313.43	-3.73741e-07
3321.99	-2.36991e-07
3330.54	-1.53105e-07
3339.1	-1.40017e-07
3347.66	-2.40379e-07
3356.22	-1.13453e-07
3364.77	5.11273e-08
3373.33	3.96567e-07
3381.89	6.95478e-07
3390.45	8.44454e-07
3399	1.11809e-06
3407.56	6.66621e-07
3416.12	1.47647e-06
3424.68	1.41542e-06
3433.23	1.03822e-06
3441.79	8.57316e-07
3450.35	1.30092e-06
3458.91	1.08192e-06
3467.47	1.51644e-06
3476.02	1.57705e-06
3484.58	1.41187e-06
3493.14	1.15403e-06
3501.7	1.18713e-06
3510.25	1.01965e-06
3518.81	9.83854e-07
3527.37	5.79373e-07
3535.93	6.2255e-07
3544.48	7.3051e-07
3553.04	6.37517e-07
3561.6	1.11679e-06
3570.16	1.1381e-06
3578.71	4.89763e-07
3587.27	8.03254e-07
3595.83	1.73593e-06
3604.39	2.98395e-06
3612.95	4.46408e-06
3621.5	7.28096e-06
3630.06	1.20296e-05
3638.62	1.99204e-05
3647.18	3.09935e-05
3655.73	4.9895e-05
3664.29	5.07336e-05
3672.85	5.19663e-05
3681.41	4.25423e-05
3689.96	4.38692e-05
3698.52	2.74748e-05
3707.08	1.1811e-05
3715.64	5.24744e-06
3724.19	2.78072e-06
3732.75	2.01258e-06
3741.31	1.41859e-06
3749.87	1.39362e-06
3758.42	1.71849e-06
3766.98	8.39443e-07
3775.54	1.57356e-06
3784.1	1.87735e-06
3792.66	1.80267e-06
3801.21	1.77803e-06
3809.77	1.65926e-06
3818.33	1.53475e-06
3826.89	1.94475e-06
3835.44	2.47494e-06
3844	2.34786e-06
3852.56	2.29062e-06
3861.12	2.65705e-06
3869.67	2.22899e-06
3878.23	1.758e-06
3886.79	2.70752e-06
3895.35	1.5217e-06
3903.9	1.5505e-06
3912.46	1.25152e-06
3921.02	1.13067e-06
3929.58	1.2737e-06
3938.13	6.22967e-07
3946.69	6.57584e-07
3955.25	9.58622e-07
3963.81	1.09424e-06
3972.37	9.48287e-07
