Infrared Spectrum: ETHYL ALCOHOL
Formula: C2H6O
CAS: 64-17-5
State: GAS (VAPOR)
Class: COBLENTZ
Instrument: PERKIN-ELMER 21 (GRATING)
Sampling: TRANSMISSION
Path length: 10 CM
Resolution: 4
MICROMETERS	TRANSMITTANCE
2.02	0.753
2.05329	0.753
2.08659	0.752
2.11988	0.757
2.15318	0.761
2.18647	0.764
2.21977	0.767
2.25306	0.771
2.28636	0.771
2.31965	0.766
2.35295	0.761
2.38624	0.765
2.41954	0.77
2.45283	0.773
2.48613	0.773
2.51942	0.775
2.55272	0.775
2.58601	0.777
2.61931	0.778
2.6526	0.78
2.6859	0.784
2.71919	0.746
2.75249	0.576
2.78578	0.721
2.81908	0.772
2.85237	0.782
2.88567	0.785
2.91896	0.786
2.95226	0.79
2.98555	0.8
3.01885	0.802
3.05214	0.802
3.08543	0.8
3.11873	0.794
3.15202	0.798
3.18532	0.802
3.21861	0.802
3.25191	0.8
3.2852	0.751
3.3185	0.434
3.35179	0.232
3.38509	0.202
3.41838	0.25
3.45168	0.245
3.48497	0.288
3.51827	0.488
3.55156	0.638
3.58486	0.682
3.61815	0.716
3.65145	0.742
3.68474	0.764
3.71804	0.776
3.75133	0.791
3.78463	0.797
3.81792	0.802
3.85122	0.809
3.88451	0.811
3.91781	0.811
3.9511	0.814
3.9844	0.819
4.01769	0.819
4.05099	0.816
4.08428	0.819
4.11757	0.821
4.15087	0.821
4.18416	0.822
4.21746	0.828
4.25075	0.833
4.28405	0.834
4.31734	0.835
4.35064	0.836
4.38393	0.83
4.41723	0.823
4.45052	0.823
4.48382	0.825
4.51711	0.826
4.55041	0.832
4.5837	0.83
4.617	0.827
4.65029	0.829
4.68359	0.825
4.71688	0.823
4.75018	0.821
4.78347	0.826
4.81677	0.829
4.85006	0.83
4.88336	0.832
4.91665	0.835
4.94995	0.835
4.98324	0.835
5.01654	0.833
5.04983	0.83
5.08313	0.827
5.11642	0.823
5.14971	0.816
5.18301	0.81
5.2163	0.814
5.2496	0.82
5.28289	0.827
5.31619	0.83
5.34948	0.835
5.38278	0.836
5.41607	0.836
5.44937	0.839
5.48266	0.841
5.51596	0.834
5.54925	0.835
5.58255	0.834
5.61584	0.826
5.64914	0.82
5.68243	0.811
5.71573	0.821
5.74902	0.828
5.78232	0.833
5.81561	0.834
5.84891	0.833
5.8822	0.836
5.9155	0.835
5.94879	0.834
5.98209	0.833
6.01538	0.833
6.04868	0.836
6.08197	0.833
6.11527	0.833
6.14856	0.832
6.18185	0.834
6.21515	0.833
6.24844	0.829
6.28174	0.833
6.31503	0.829
6.34833	0.834
6.38162	0.838
6.41492	0.842
6.44821	0.835
6.48151	0.841
6.5148	0.832
6.5481	0.828
6.58139	0.817
6.61469	0.809
6.64798	0.778
6.68128	0.764
6.71457	0.751
6.74787	0.723
6.78116	0.716
6.81446	0.711
6.84775	0.701
6.88105	0.641
6.91434	0.651
6.94764	0.654
6.98093	0.653
7.01423	0.608
7.04752	0.55
7.08082	0.432
7.11411	0.398
7.14741	0.445
7.1807	0.41
7.21399	0.438
7.24729	0.425
7.28058	0.501
7.31388	0.566
7.34717	0.63
7.38047	0.663
7.41376	0.685
7.44706	0.7
7.48035	0.703
7.51365	0.717
7.54694	0.726
7.58024	0.727
7.61353	0.73
7.64683	0.73
7.68012	0.73
7.71342	0.728
7.74671	0.722
7.78001	0.714
7.8133	0.692
7.8466	0.67
7.87989	0.627
7.91319	0.57
7.94648	0.51
7.97978	0.479
8.01307	0.448
8.04637	0.477
8.07966	0.475
8.11296	0.496
8.14625	0.47
8.17955	0.483
8.21284	0.523
8.24613	0.577
8.27943	0.632
8.31272	0.666
8.34602	0.69
8.37931	0.703
8.41261	0.721
8.4459	0.735
8.4792	0.744
8.51249	0.754
8.54579	0.758
8.57908	0.764
8.61238	0.763
8.64567	0.763
8.67897	0.763
8.71226	0.757
8.74556	0.753
8.77885	0.742
8.81215	0.732
8.84544	0.714
8.87874	0.69
8.91203	0.672
8.94533	0.633
8.97862	0.588
9.01192	0.519
9.04521	0.455
9.07851	0.411
9.1118	0.388
9.1451	0.372
9.17839	0.3
9.21169	0.227
9.24498	0.167
9.27827	0.136
9.31157	0.11
9.34486	0.111
9.37816	0.105
9.41145	0.102
9.44475	0.117
9.47804	0.098
9.51134	0.102
9.54463	0.105
9.57793	0.114
9.61122	0.148
9.64452	0.167
9.67781	0.24
9.71111	0.302
9.7444	0.265
9.7777	0.35
9.81099	0.38
9.84429	0.394
9.87758	0.425
9.91088	0.469
9.94417	0.517
9.97747	0.565
10.0108	0.614
10.0441	0.659
10.0774	0.692
10.1106	0.716
10.1439	0.739
10.1772	0.754
10.2105	0.771
10.2438	0.782
10.2771	0.785
10.3104	0.795
10.3437	0.801
10.377	0.804
10.4103	0.805
10.4436	0.81
10.4769	0.813
10.5102	0.816
10.5435	0.816
10.5768	0.819
10.6101	0.814
10.6434	0.81
10.6767	0.809
10.71	0.809
10.7432	0.809
10.7765	0.805
10.8098	0.804
10.8431	0.802
10.8764	0.792
10.9097	0.782
10.943	0.76
10.9763	0.738
11.0096	0.711
11.0429	0.684
11.0762	0.653
11.1095	0.632
11.1428	0.616
11.1761	0.604
11.2094	0.602
11.2427	0.571
11.276	0.61
11.3093	0.628
11.3426	0.62
11.3758	0.621
11.4091	0.601
11.4424	0.641
11.4757	0.636
11.509	0.629
11.5423	0.628
11.5756	0.636
11.6089	0.653
11.6422	0.678
11.6755	0.702
11.7088	0.729
11.7421	0.752
11.7754	0.769
11.8087	0.777
11.842	0.788
11.8753	0.802
11.9086	0.803
11.9419	0.81
11.9752	0.809
12.0085	0.811
12.0417	0.811
12.075	0.813
12.1083	0.815
12.1416	0.814
12.1749	0.815
12.2082	0.816
12.2415	0.816
12.2748	0.815
12.3081	0.811
12.3414	0.808
12.3747	0.809
12.408	0.809
12.4413	0.81
12.4746	0.808
12.5079	0.804
12.5412	0.805
12.5745	0.808
12.6078	0.81
12.6411	0.809
12.6743	0.81
12.7076	0.81
12.7409	0.81
12.7742	0.811
12.8075	0.813
12.8408	0.811
12.8741	0.813
12.9074	0.813
12.9407	0.815
12.974	0.817
13.0073	0.817
13.0406	0.82
13.0739	0.821
13.1072	0.821
13.1405	0.821
13.1738	0.82
13.2071	0.82
13.2404	0.821
13.2737	0.817
13.307	0.816
13.3402	0.816
13.3735	0.816
13.4068	0.814
13.4401	0.811
13.4734	0.81
13.5067	0.809
13.54	0.809
13.5733	0.808
13.6066	0.805
13.6399	0.805
13.6732	0.805
13.7065	0.805
13.7398	0.803
13.7731	0.802
13.8064	0.802
13.8397	0.802
13.873	0.802
13.9063	0.8
13.9396	0.794
13.9728	0.791
14.0061	0.79
14.0394	0.782
14.0727	0.782
14.106	0.782
14.1393	0.779
14.1726	0.777
14.2059	0.776
14.2392	0.773
14.2725	0.772
14.3058	0.769
14.3391	0.766
14.3724	0.766
14.4057	0.763
14.439	0.76
14.4723	0.76
14.5056	0.754
14.5389	0.753
14.5722	0.754
14.6054	0.752
14.6387	0.748
14.672	0.746
14.7053	0.74
14.7386	0.736
14.7719	0.733
14.8052	0.732
14.8385	0.73
14.8718	0.728
14.9051	0.717
14.9384	0.715
14.9717	0.714
15.005	0.715
