Infrared Spectrum: BENZENE
Formula: C6H6
CAS: 71-43-2
State: SOLUTION (10% IN CCl4 FOR 3800-1300, 10% IN CS2 FOR 1300-625, AND 10% IN CCl4 FOR 625-240 CM^-^1) VS. SOLVENT
Class: COBLENTZ II
Instrument: PERKIN-ELMER 521 (GRATING)
Instrument parameters: FILTERS AT 3150, 2500, 2000, 1150, 700, 410 AND GRATING CHANGES AT 2000, 630 CM^-^1
Sampling: TRANSMISSION
Path length: 0.011, 0.011, AND 0.020 CM (CsBr CELL)
Resolution: 4
Origin: DOW CORNING CORP.
1/CM	TRANSMITTANCE
236.486	0.797
245.7	0.808
254.914	0.812
264.127	0.817
273.341	0.83
282.555	0.838
291.769	0.852
300.982	0.871
310.196	0.864
319.41	0.868
328.624	0.875
337.837	0.871
347.051	0.863
356.265	0.867
365.479	0.864
374.692	0.862
383.906	0.856
393.12	0.856
402.334	0.86
411.548	0.873
420.761	0.885
429.975	0.891
439.189	0.899
448.403	0.902
457.616	0.909
466.83	0.917
476.044	0.919
485.258	0.925
494.471	0.904
503.685	0.902
512.899	0.898
522.113	0.904
531.326	0.915
540.54	0.916
549.754	0.909
558.968	0.907
568.181	0.908
577.395	0.896
586.609	0.886
595.823	0.883
605.037	0.867
614.25	0.861
623.464	0.839
632.678	0.747
641.892	0.701
651.105	0.591
660.319	0.366
669.533	0
678.747	0.067
687.96	0.474
697.174	0.658
706.388	0.745
715.602	0.789
724.815	0.813
734.029	0.831
743.243	0.839
752.457	0.843
761.671	0.84
770.884	0.807
780.098	0.853
789.312	0.857
798.526	0.868
807.739	0.852
816.953	0.84
826.167	0.816
835.381	0.792
844.594	0.791
853.808	0.809
863.022	0.841
872.236	0.852
881.449	0.856
890.663	0.857
899.877	0.849
909.091	0.852
918.304	0.846
927.518	0.843
936.732	0.84
945.946	0.825
955.16	0.802
964.373	0.794
973.587	0.8
982.801	0.794
992.015	0.792
1001.23	0.78
1010.44	0.762
1019.66	0.697
1028.87	0.424
1038.08	0.4581
1047.3	0.772
1056.51	0.824
1065.72	0.835
1074.94	0.843
1084.15	0.844
1093.37	0.845
1102.58	0.835
1111.79	0.835
1121.01	0.816
1130.22	0.8
1139.43	0.783
1148.65	0.773
1157.86	0.759
1167.08	0.714
1176.29	0.741
1185.5	0.8
1194.72	0.823
1203.93	0.843
1213.14	0.854
1222.36	0.853
1231.57	0.86
1240.79	0.849
1250	0.869
1259.21	0.873
1268.43	0.879
1277.64	0.879
1286.86	0.872
1296.07	0.872
1305.28	0.876
1314.5	0.883
1323.71	0.887
1332.92	0.888
1342.14	0.888
1351.35	0.885
1360.57	0.886
1369.78	0.877
1378.99	0.871
1388.21	0.793
1397.42	0.853
1406.63	0.87
1415.85	0.878
1425.06	0.876
1434.28	0.875
1443.49	0.868
1452.7	0.844
1461.92	0.804
1471.13	0.6129
1480.34	0.045
1489.56	0.668
1498.77	0.819
1507.99	0.83
1517.2	0.786
1526.41	0.757
1535.63	0.878
1544.84	0.923
1554.05	0.924
1563.27	0.919
1572.48	0.901
1581.7	0.896
1590.91	0.894
1600.12	0.888
1609.34	0.875
1618.55	0.859
1627.76	0.873
1636.98	0.886
1646.19	0.876
1655.41	0.884
1664.62	0.875
1673.83	0.873
1683.05	0.885
1692.26	0.89
1701.47	0.892
1710.69	0.887
1719.9	0.89
1729.12	0.893
1738.33	0.894
1747.54	0.888
1756.76	0.862
1765.97	0.883
1775.18	0.877
1784.4	0.875
1793.61	0.852
1802.83	0.806
1812.04	0.6049
1821.25	0.6501
1830.47	0.841
1839.68	0.879
1848.89	0.886
1858.11	0.89
1867.32	0.888
1876.54	0.887
1885.75	0.887
1894.96	0.894
1904.18	0.89
1913.39	0.892
1922.6	0.891
1931.82	0.884
1941.03	0.865
1950.25	0.809
1959.46	0.605
1968.67	0.798
1977.89	0.878
1987.1	0.883
1996.31	0.877
2005.53	0.852
2014.74	0.869
2023.96	0.871
2033.17	0.872
2042.38	0.87
2051.6	0.8761
2060.81	0.876
2070.02	0.873
2079.24	0.871
2088.45	0.871
2097.67	0.871
2106.88	0.878
2116.09	0.8722
2125.31	0.8729
2134.52	0.873
2143.73	0.87
2152.95	0.871
2162.16	0.872
2171.38	0.87
2180.59	0.87
2189.8	0.8711
2199.02	0.8685
2208.23	0.837
2217.45	0.8681
2226.66	0.8701
2235.87	0.8791
2245.09	0.8817
2254.3	0.883
2263.51	0.8735
2272.73	0.879
2281.94	0.8798
2291.16	0.877
2300.37	0.878
2309.58	0.8646
2318.8	0.8381
2328.01	0.8529
2337.22	0.8752
2346.44	0.876
2355.65	0.87
2364.87	0.87
2374.08	0.865
2383.29	0.867
2392.51	0.8703
2401.72	0.871
2410.93	0.871
2420.15	0.8735
2429.36	0.8683
2438.58	0.8763
2447.79	0.8703
2457	0.8724
2466.22	0.8707
2475.43	0.868
2484.64	0.8703
2493.86	0.869
2503.07	0.8677
2512.29	0.869
2521.5	0.8693
2530.71	0.8687
2539.93	0.87
2549.14	0.867
2558.35	0.869
2567.57	0.867
2576.78	0.869
2586	0.8629
2595.21	0.8514
2604.42	0.8578
2613.64	0.854
2622.85	0.8638
2632.06	0.867
2641.28	0.8616
2650.49	0.8566
2659.71	0.8587
2668.92	0.869
2678.13	0.8699
2687.35	0.8685
2696.56	0.869
2705.77	0.869
2714.99	0.8625
2724.2	0.8635
2733.42	0.8605
2742.63	0.865
2751.84	0.8635
2761.06	0.866
2770.27	0.8595
2779.48	0.86
2788.7	0.8605
2797.91	0.8595
2807.13	0.8529
2816.34	0.8392
2825.55	0.8481
2834.77	0.8524
2843.98	0.8479
2853.19	0.8487
2862.41	0.852
2871.62	0.845
2880.84	0.8291
2890.05	0.805
2899.26	0.836
2908.48	0.826
2917.69	0.836
2926.9	0.8314
2936.12	0.831
2945.33	0.8257
2954.55	0.827
2963.76	0.8214
2972.97	0.806
2982.19	0.807
2991.4	0.7894
3000.61	0.7677
3009.83	0.7187
3019.04	0.6512
3028.26	0.4665
3037.47	0.117
3046.68	0.4586
3055.9	0.6461
3065.11	0.6228
3074.33	0.2941
3083.54	0.5511
3092.75	0.2149
3101.97	0.5039
3111.18	0.7648
3120.39	0.8022
3129.61	0.8455
3138.82	0.8548
3148.04	0.8598
3157.25	0.8628
3166.46	0.8678
3175.68	0.8708
3184.89	0.8728
3194.1	0.873
3203.32	0.8734
3212.53	0.8754
3221.75	0.876
3230.96	0.8768
3240.17	0.8766
3249.39	0.878
3258.6	0.876
3267.81	0.879
3277.03	0.879
3286.24	0.88
3295.46	0.879
3304.67	0.8789
3313.88	0.88
3323.1	0.883
3332.31	0.8832
3341.52	0.8825
3350.74	0.8791
3359.95	0.8799
3369.17	0.88
3378.38	0.8782
3387.59	0.8781
3396.81	0.8779
3406.02	0.8779
3415.23	0.879
3424.45	0.879
3433.66	0.878
3442.88	0.877
3452.09	0.876
3461.3	0.88
3470.52	0.8829
3479.73	0.883
3488.94	0.884
3498.16	0.883
3507.37	0.883
3516.59	0.882
3525.8	0.887
3535.01	0.8898
3544.23	0.888
3553.44	0.886
3562.65	0.8871
3571.87	0.8879
3581.08	0.885
3590.3	0.89
3599.51	0.884
3608.72	0.8799
3617.94	0.8791
3627.15	0.8916
3636.36	0.8775
3645.58	0.8582
3654.79	0.888
3664.01	0.8827
3673.22	0.9022
3682.43	0.8776
3691.65	0.8759
3700.86	0.8715
3710.07	0.8899
3719.29	0.8859
3728.5	0.8933
3737.72	0.9022
3746.93	0.9038
3756.14	0.8975
3765.36	0.89
3774.57	0.89
3783.78	0.8878
3793	0.8862
