Infrared Spectrum: CARBON MONOXIDE
Formula: CO
CAS: 630-08-0
State: GAS (400 mmHg DILUTED TO A TOTAL PRESSURE OF 600 mmHg WITH N2)
Class: COBLENTZ
Instrument: DOW KBr FOREPRISM
Instrument parameters: GRATING CHANGED AT 5.0, 7.5, 15.0 MICRON
Sampling: TRANSMISSION
Path length: 10 CM
Resolution: 4
Origin: DOW CHEMICAL COMPANY
1/CM	TRANSMITTANCE
457.865	0.961
466.292	0.962
474.719	0.963
483.146	0.962
491.573	0.962
500	0.962
508.427	0.959
516.854	0.956
525.281	0.958
533.708	0.956
542.135	0.956
550.562	0.956
558.989	0.961
567.416	0.965
575.843	0.966
584.27	0.972
592.697	0.972
601.124	0.975
609.551	0.976
617.978	0.978
626.405	0.981
634.832	0.982
643.259	0.984
651.686	0.982
660.113	0.985
668.54	0.972
676.967	0.985
685.394	0.987
693.821	0.987
702.248	0.994
710.675	0.995
719.102	0.997
727.529	0.998
735.956	0.997
744.383	0.997
752.81	0.997
761.237	0.997
769.664	0.997
778.091	0.995
786.518	0.997
794.945	0.995
803.372	0.992
811.799	0.991
820.226	0.995
828.653	0.995
837.08	0.997
845.507	0.997
853.934	0.997
862.361	0.997
870.788	0.998
879.214	0.997
887.641	0.998
896.068	0.995
904.495	0.997
912.922	0.998
921.349	1.001
929.776	1.002
938.203	1.004
946.63	1.004
955.057	1.004
963.484	1.004
971.911	1.005
980.338	1.008
988.765	1.008
997.192	1.007
1005.62	1.008
1014.05	1.01
1022.47	1.01
1030.9	1.012
1039.33	1.011
1047.75	1.011
1056.18	1.011
1064.61	1.011
1073.04	1.007
1081.46	1.012
1089.89	1.014
1098.32	1.014
1106.74	1.014
1115.17	1.014
1123.6	1.015
1132.02	1.012
1140.45	1.01
1148.88	1.012
1157.31	1.017
1165.73	1.02
1174.16	1.014
1182.59	1.017
1191.01	1.02
1199.44	1.02
1207.87	1.02
1216.29	1.02
1224.72	1.02
1233.15	1.015
1241.58	1.012
1250	1
1258.43	0.997
1266.86	0.997
1275.28	0.997
1283.71	0.995
1292.14	0.994
1300.56	0.994
1308.99	0.995
1317.42	0.995
1325.84	0.995
1334.27	0.995
1342.7	0.995
1351.13	0.994
1359.55	0.992
1367.98	0.992
1376.41	0.992
1384.83	0.992
1393.26	0.991
1401.69	0.991
1410.11	0.991
1418.54	0.992
1426.97	0.992
1435.4	0.989
1443.82	0.985
1452.25	0.982
1460.68	0.984
1469.1	0.988
1477.53	0.985
1485.96	0.985
1494.38	0.982
1502.81	0.981
1511.24	0.978
1519.67	0.978
1528.09	0.982
1536.52	0.984
1544.95	0.982
1553.37	0.982
1561.8	0.981
1570.23	0.984
1578.65	0.985
1587.08	0.985
1595.51	0.985
1603.94	0.985
1612.36	0.985
1620.79	0.985
1629.22	0.988
1637.64	0.989
1646.07	0.989
1654.5	0.989
1662.92	0.985
1671.35	0.984
1679.78	0.982
1688.21	0.982
1696.63	0.979
1705.06	0.982
1713.49	0.979
1721.91	0.978
1730.34	0.978
1738.77	0.981
1747.19	0.979
1755.62	0.978
1764.05	0.978
1772.48	0.981
1780.9	0.979
1789.33	0.979
1797.76	0.982
1806.18	0.984
1814.61	0.985
1823.04	0.982
1831.46	0.984
1839.89	0.982
1848.32	0.984
1856.75	0.984
1865.17	0.979
1873.6	0.984
1882.03	0.981
1890.45	0.982
1898.88	0.982
1907.31	0.979
1915.73	0.981
1924.16	0.979
1932.59	0.981
1941.02	0.979
1949.44	0.981
1957.87	0.976
1966.3	0.984
1974.72	0.985
1983.15	0.988
1991.58	0.987
2000	0.985
2008.43	0.983
2016.86	0.978
2025.29	0.9605
2033.71	0.943
2042.14	0.922
2050.57	0.8701
2058.99	0.7786
2067.42	0.6951
2075.85	0.5847
2084.27	0.4633
2092.7	0.3847
2101.13	0.2993
2109.56	0.2183
2117.98	0.1482
2126.41	0.2214
2134.84	0.4299
2143.26	0.732
2151.69	0.6728
2160.12	0.408
2168.54	0.2437
2176.97	0.147
2185.4	0.2195
2193.82	0.3104
2202.25	0.4523
2210.68	0.5565
2219.11	0.7112
2227.53	0.83
2235.96	0.9098
2244.39	0.9642
2252.81	0.9839
2261.24	0.987
2269.67	0.991
2278.09	0.988
2286.52	0.992
2294.95	0.9901
2303.38	0.9751
2311.8	0.968
2320.23	0.962
2328.66	0.958
2337.08	0.956
2345.51	0.955
2353.94	0.9579
2362.36	0.9639
2370.79	0.9739
2379.22	0.9804
2387.65	0.992
2396.07	0.994
2404.5	0.994
2412.93	0.992
2421.35	0.992
2429.78	0.9929
2438.21	0.992
2446.63	0.992
2455.06	0.992
2463.49	0.992
2471.92	0.992
2480.34	0.991
2488.77	0.991
2497.2	0.991
2505.62	0.992
2514.05	0.994
2522.48	0.994
2530.9	0.992
2539.33	0.992
2547.76	0.9929
2556.19	0.994
2564.61	0.995
2573.04	0.995
2581.47	0.995
2589.89	0.995
2598.32	0.995
2606.75	0.995
2615.17	0.994
2623.6	0.992
2632.03	0.994
2640.46	0.992
2648.88	0.995
2657.31	0.994
2665.74	0.992
2674.16	0.994
2682.59	0.994
2691.02	0.995
2699.44	0.995
2707.87	0.995
2716.3	0.995
2724.73	0.995
2733.15	0.995
2741.58	0.995
2750.01	0.995
2758.43	0.995
2766.86	0.995
2775.29	0.9941
2783.71	0.9932
2792.14	0.9911
2800.57	0.991
2809	0.991
2817.42	0.991
2825.85	0.9938
2834.28	0.995
2842.7	0.9979
2851.13	0.9992
2859.56	0.9892
2867.98	0.989
2876.41	0.989
2884.84	0.9898
2893.27	0.9919
2901.69	0.9922
2910.12	0.9998
2918.55	0.9976
2926.97	0.9811
2935.4	0.978
2943.83	0.9789
2952.25	0.979
2960.68	0.981
2969.11	0.982
2977.53	0.9868
2985.96	0.9898
2994.39	0.9919
3002.82	0.992
3011.24	0.989
3019.67	0.989
3028.1	0.991
3036.52	0.9902
3044.95	0.989
3053.38	0.991
3061.8	0.9919
3070.23	0.994
3078.66	0.994
3087.09	0.994
3095.51	0.994
3103.94	0.995
3112.37	0.995
3120.79	0.997
3129.22	0.997
3137.65	0.997
3146.07	0.998
3154.5	0.998
3162.93	0.998
3171.36	0.998
3179.78	0.998
3188.21	0.998
3196.64	0.998
3205.06	1
3213.49	0.998
3221.92	0.9987
3230.34	1
3238.77	1
3247.2	1
3255.63	0.998
3264.05	1
3272.48	1
3280.91	1
3289.33	1
3297.76	1
3306.19	1
3314.61	1.0001
3323.04	1.0007
3331.47	1
3339.9	1.0004
3348.32	1.001
3356.75	1
3365.18	1
3373.6	1.001
3382.03	1.001
3390.46	1.001
3398.88	1.001
3407.31	1.001
3415.74	1.001
3424.17	1.0004
3432.59	1.001
3441.02	1.001
3449.45	1.0002
3457.87	1
3466.3	1
3474.73	1
3483.15	1
3491.58	1
3500.01	1
3508.44	0.998
3516.86	1.0008
3525.29	1.001
3533.72	1.0002
3542.14	1
3550.57	0.9984
3559	0.997
3567.42	0.995
3575.85	0.9947
3584.28	0.994
3592.71	0.992
3601.13	0.992
3609.56	0.9926
3617.99	0.992
3626.41	0.994
3634.84	0.992
3643.27	0.995
3651.69	0.995
3660.12	0.992
3668.55	0.992
3676.98	0.989
3685.4	0.989
3693.83	0.991
3702.26	0.9948
3710.68	0.995
3719.11	0.9924
3727.54	0.9926
3735.96	0.995
3744.39	0.998
3752.82	1
3761.25	0.995
3769.67	0.998
3778.1	0.997
3786.53	0.9954
3794.95	0.995
3803.38	0.995
