Infrared Spectrum: ACETONE
Formula: C3H6O
CAS: 67-64-1
State: SOLUTION (10% IN CCl4 FOR 4000-1330 CM^-^1, 10% IN CS2 FOR 1330-600 CM^-^1)
Class: COBLENTZ III
Instrument: BECKMAN IR-7 (GRATING)
Instrument parameters: GRATING CHANGES AT 3000, 2200, 1150 CM^-^1
Sampling: TRANSMISSION
Path length: 0.011 CM, 0.010 CM
Resolution: 4
Origin: WESTERN REGIONAL RES. USDA
1/CM	TRANSMITTANCE
598.702	0.804
607.789	0.797
616.875	0.796
625.962	0.788
635.049	0.776
644.136	0.756
653.222	0.732
662.309	0.741
671.396	0.774
680.482	0.77
689.569	0.793
698.656	0.798
707.742	0.799
716.829	0.799
725.916	0.802
735.003	0.805
744.089	0.806
753.176	0.805
762.263	0.801
771.349	0.793
780.436	0.753
789.523	0.744
798.61	0.79
807.696	0.799
816.783	0.797
825.87	0.802
834.956	0.795
844.043	0.762
853.13	0.68
862.216	0.668
871.303	0.69
880.39	0.695
889.477	0.665
898.563	0.614
907.65	0.666
916.737	0.718
925.823	0.748
934.91	0.774
943.997	0.783
953.084	0.793
962.17	0.797
971.257	0.797
980.344	0.797
989.43	0.802
998.517	0.807
1007.6	0.806
1016.69	0.803
1025.78	0.802
1034.86	0.797
1043.95	0.79
1053.04	0.777
1062.12	0.762
1071.21	0.747
1080.3	0.657
1089.38	0.442
1098.47	0.637
1107.56	0.707
1116.64	0.74
1125.73	0.754
1134.82	0.759
1143.9	0.765
1152.99	0.745
1162.08	0.731
1171.16	0.712
1180.25	0.668
1189.34	0.569
1198.42	0.455
1207.51	0.1121
1216.6	0
1225.68	0.186
1234.77	0.503
1243.86	0.62
1252.94	0.674
1262.03	0.697
1271.12	0.709
1280.2	0.71
1289.29	0.699
1298.38	0.682
1307.47	0.646
1316.55	0.594
1325.64	0.509
1334.73	0.407
1343.81	0.132
1352.9	0.001
1361.99	0.021
1371.07	0.163
1380.16	0.272
1389.25	0.357
1398.33	0.357
1407.42	0.286
1416.51	0.164
1425.59	0.184
1434.68	0.17
1443.77	0.224
1452.85	0.327
1461.94	0.419
1471.03	0.492
1480.11	0.507
1489.2	0.533
1498.29	0.539
1507.37	0.517
1516.46	0.498
1525.55	0.473
1534.63	0.432
1543.72	0.385
1552.81	0.356
1561.89	0.388
1570.98	0.434
1580.07	0.46
1589.15	0.486
1598.24	0.534
1607.33	0.584
1616.41	0.627
1625.5	0.641
1634.59	0.648
1643.67	0.649
1652.76	0.639
1661.85	0.623
1670.93	0.577
1680.02	0.454
1689.11	0.43
1698.19	0.298
1707.28	0.033
1716.37	0.001
1725.45	0.002
1734.54	0.069
1743.63	0.123
1752.71	0.154
1761.8	0.34
1770.89	0.449
1779.97	0.499
1789.06	0.521
1798.15	0.55
1807.23	0.599
1816.32	0.637
1825.41	0.67
1834.49	0.687
1843.58	0.695
1852.67	0.709
1861.75	0.72
1870.84	0.722
1879.93	0.724
1889.01	0.728
1898.1	0.73
1907.19	0.732
1916.27	0.736
1925.36	0.736
1934.45	0.732
1943.53	0.729
1952.62	0.732
1961.71	0.735
1970.79	0.735
1979.88	0.733
1988.97	0.729
1998.05	0.726
2007.14	0.725
2016.23	0.725
2025.31	0.727
2034.4	0.7286
2043.49	0.7302
2052.57	0.7318
2061.66	0.733
2070.75	0.733
2079.84	0.734
2088.92	0.734
2098.01	0.734
2107.1	0.734
2116.18	0.734
2125.27	0.733
2134.36	0.731
2143.44	0.729
2152.53	0.731
2161.62	0.734
2170.7	0.7346
2179.79	0.736
2188.88	0.736
2197.96	0.736
2207.05	0.737
2216.14	0.737
2225.22	0.737
2234.31	0.7362
2243.4	0.736
2252.48	0.734
2261.57	0.7324
2270.66	0.731
2279.74	0.729
2288.83	0.727
2297.92	0.729
2307	0.7316
2316.09	0.733
2325.18	0.734
2334.26	0.734
2343.35	0.734
2352.44	0.734
2361.52	0.734
2370.61	0.734
2379.7	0.736
2388.78	0.738
2397.87	0.7423
2406.96	0.7463
2416.04	0.747
2425.13	0.748
2434.22	0.747
2443.3	0.7453
2452.39	0.7417
2461.48	0.742
2470.56	0.7455
2479.65	0.7471
2488.74	0.7487
2497.82	0.749
2506.91	0.7499
2516	0.75
2525.08	0.75
2534.17	0.75
2543.26	0.749
2552.34	0.7481
2561.43	0.7475
2570.52	0.7449
2579.6	0.7373
2588.69	0.7247
2597.78	0.7266
2606.86	0.7394
2615.95	0.7481
2625.04	0.7497
2634.12	0.75
2643.21	0.75
2652.3	0.749
2661.38	0.7489
2670.47	0.7473
2679.56	0.7457
2688.64	0.745
2697.73	0.743
2706.82	0.743
2715.9	0.742
2724.99	0.742
2734.08	0.7411
2743.16	0.7405
2752.25	0.7399
2761.34	0.738
2770.42	0.7335
2779.51	0.721
2788.6	0.709
2797.68	0.7091
2806.77	0.7147
2815.86	0.7183
2824.94	0.719
2834.03	0.7175
2843.12	0.7055
2852.21	0.6886
2861.29	0.687
2870.38	0.688
2879.47	0.689
2888.55	0.6869
2897.64	0.6816
2906.73	0.6722
2915.81	0.6466
2924.9	0.6162
2933.99	0.5644
2943.07	0.5455
2952.16	0.5776
2961.25	0.5278
2970.33	0.457
2979.42	0.4878
2988.51	0.5229
2997.59	0.546
3006.68	0.4286
3015.77	0.3914
3024.85	0.4659
3033.94	0.5287
3043.03	0.5611
3052.11	0.5988
3061.2	0.6315
3070.29	0.6431
3079.37	0.6481
3088.46	0.6582
3097.55	0.6706
3106.63	0.682
3115.72	0.6901
3124.81	0.7021
3133.89	0.7103
3142.98	0.7149
3152.07	0.7175
3161.15	0.7191
3170.24	0.7214
3179.33	0.725
3188.41	0.727
3197.5	0.729
3206.59	0.731
3215.67	0.732
3224.76	0.734
3233.85	0.734
3242.93	0.734
3252.02	0.733
3261.11	0.7337
3270.19	0.734
3279.28	0.736
3288.37	0.7365
3297.45	0.739
3306.54	0.74
3315.63	0.74
3324.71	0.74
3333.8	0.739
3342.89	0.7389
3351.97	0.7373
3361.06	0.736
3370.15	0.736
3379.23	0.734
3388.32	0.7319
3397.41	0.7198
3406.49	0.6992
3415.58	0.6667
3424.67	0.6318
3433.75	0.6143
3442.84	0.6737
3451.93	0.6963
3461.01	0.6998
3470.1	0.7055
3479.19	0.712
3488.27	0.713
3497.36	0.714
3506.45	0.713
3515.53	0.712
3524.62	0.7111
3533.71	0.7127
3542.79	0.7133
3551.88	0.715
3560.97	0.718
3570.05	0.719
3579.14	0.72
3588.23	0.7223
3597.31	0.7269
3606.4	0.7281
3615.49	0.7311
3624.58	0.732
3633.66	0.734
3642.75	0.734
3651.84	0.734
3660.92	0.734
3670.01	0.733
3679.1	0.7287
3688.18	0.7151
3697.27	0.707
3706.36	0.7157
3715.44	0.7222
3724.53	0.7333
3733.62	0.7379
3742.7	0.7385
3751.79	0.74
3760.88	0.74
3769.96	0.739
3779.05	0.738
3788.14	0.737
3797.22	0.736
3806.31	0.736
3815.4	0.736
3824.48	0.736
3833.57	0.736
3842.66	0.7362
3851.74	0.738
3860.83	0.7383
3869.92	0.738
3879	0.7375
3888.09	0.736
3897.18	0.736
3906.26	0.734
3915.35	0.734
3924.44	0.733
3933.52	0.732
3942.61	0.732
3951.7	0.731
3960.78	0.729
3969.87	0.7274
3978.96	0.725
