Infrared Spectrum: 2-PROPANONE
Formula: C3H6O
CAS: 67-64-1
State: SOLUTION (10% IN CCl4 FOR 3800-1300, 10% IN CS2 FOR 1300-420 CM^-^1)
Class: COBLENTZ III
Instrument: BECKMAN IR-9 (GRATING)
Instrument parameters: ORDER CHANGES AT 670, 1200, 2000 CM^-^1
Sampling: TRANSMISSION
Path length: 0.011, 0.011 CM
Resolution: 4
Origin: DOW CHEMICAL COMPANY
1/CM	TRANSMITTANCE
421.832	0.94
431.189	0.981
440.546	0.978
449.902	0.984
459.259	0.998
468.616	0.995
477.973	0.977
487.329	0.912
496.686	0.929
506.043	0.912
515.4	0.834
524.756	0.5302
534.113	0.1768
543.47	0.7298
552.827	0.918
562.183	0.975
571.54	1.006
580.897	1.021
590.254	1.03
599.61	1.042
608.967	1.053
618.324	1.058
627.681	1.053
637.037	1.044
646.394	1.03
655.751	0.955
665.108	1.007
674.464	1.021
683.821	1.027
693.178	1.032
702.535	1.032
711.891	1.033
721.248	1.033
730.605	1.032
739.962	1.03
749.318	1.024
758.675	1.015
768.032	1
777.389	0.952
786.745	0.899
796.102	0.984
805.459	1.001
814.816	1.007
824.172	1.009
833.529	1.016
842.886	1.025
852.243	1.007
861.599	0.977
870.956	0.96
880.313	0.932
889.67	0.837
899.026	0.703
908.383	0.767
917.74	0.857
927.097	0.911
936.453	0.943
945.81	0.958
955.167	0.984
964.524	0.977
973.88	0.964
983.237	0.974
992.594	0.98
1001.95	0.996
1011.31	0.998
1020.66	0.993
1030.02	0.987
1039.38	0.977
1048.73	0.964
1058.09	0.941
1067.45	0.918
1076.8	0.853
1086.16	0.5732
1095.52	0.5839
1104.87	0.81
1114.23	0.886
1123.59	0.917
1132.95	0.937
1142.3	0.932
1151.66	0.926
1161.02	0.909
1170.37	0.883
1179.73	0.833
1189.09	0.717
1198.44	0.581
1207.8	0.307
1217.16	0.001
1226.51	0.044
1235.87	0.5
1245.23	0.707
1254.58	0.799
1263.94	0.837
1273.3	0.862
1282.65	0.862
1292.01	0.84
1301.37	0.808
1310.72	0.755
1320.08	0.672
1329.44	0.574
1338.79	0.455
1348.15	0.2089
1357.51	0.004
1366.86	0.006
1376.22	0.117
1385.58	0.307
1394.93	0.385
1404.29	0.345
1413.65	0.215
1423	0.162
1432.36	0.171
1441.72	0.178
1451.07	0.3011
1460.43	0.428
1469.79	0.547
1479.15	0.597
1488.5	0.64
1497.86	0.674
1507.22	0.695
1516.57	0.711
1525.93	0.721
1535.29	0.732
1544.64	0.762
1554	0.761
1563.36	0.737
1572.71	0.735
1582.07	0.747
1591.43	0.766
1600.78	0.781
1610.14	0.782
1619.5	0.781
1628.85	0.784
1638.21	0.775
1647.57	0.755
1656.92	0.724
1666.28	0.685
1675.64	0.553
1684.99	0.478
1694.35	0.406
1703.71	0.126
1713.06	0.001
1722.42	0.003
1731.78	0.021
1741.13	0.123
1750.49	0.102
1759.85	0.281
1769.2	0.47
1778.56	0.555
1787.92	0.582
1797.27	0.626
1806.63	0.689
1815.99	0.743
1825.34	0.778
1834.7	0.802
1844.06	0.818
1853.42	0.831
1862.77	0.85
1872.13	0.859
1881.49	0.851
1890.84	0.853
1900.2	0.862
1909.56	0.862
1918.91	0.865
1928.27	0.865
1937.63	0.865
1946.98	0.87
1956.34	0.879
1965.7	0.88
1975.05	0.879
1984.41	0.863
1993.77	0.859
2003.12	0.863
2012.48	0.874
2021.84	0.884
2031.19	0.886
2040.55	0.885
2049.91	0.885
2059.26	0.883
2068.62	0.882
2077.98	0.88
2087.33	0.877
2096.69	0.867
2106.05	0.853
2115.4	0.8395
2124.76	0.837
2134.12	0.8301
2143.47	0.81
2152.83	0.8259
2162.19	0.8529
2171.54	0.8674
2180.9	0.876
2190.26	0.876
2199.61	0.877
2208.97	0.878
2218.33	0.8711
2227.69	0.87
2237.04	0.87
2246.4	0.8578
2255.76	0.848
2265.11	0.851
2274.47	0.857
2283.83	0.8754
2293.18	0.883
2302.54	0.8811
2311.9	0.8731
2321.25	0.8641
2330.61	0.865
2339.97	0.863
2349.32	0.865
2358.68	0.865
2368.04	0.874
2377.39	0.883
2386.75	0.886
2396.11	0.886
2405.46	0.883
2414.82	0.8781
2424.18	0.8711
2433.53	0.8536
2442.89	0.854
2452.25	0.8707
2461.6	0.8819
2470.96	0.882
2480.32	0.8801
2489.67	0.879
2499.03	0.8789
2508.39	0.882
2517.74	0.883
2527.1	0.885
2536.46	0.886
2545.81	0.885
2555.17	0.8821
2564.53	0.8736
2573.89	0.8332
2583.24	0.8497
2592.6	0.8649
2601.96	0.8794
2611.31	0.88
2620.67	0.879
2630.03	0.877
2639.38	0.877
2648.74	0.879
2658.1	0.8803
2667.45	0.8859
2676.81	0.8856
2686.17	0.8771
2695.52	0.877
2704.88	0.88
2714.24	0.8796
2723.59	0.8799
2732.95	0.882
2742.31	0.8772
2751.66	0.874
2761.02	0.8701
2770.38	0.8577
2779.73	0.8305
2789.09	0.8265
2798.45	0.8478
2807.8	0.854
2817.16	0.853
2826.52	0.8424
2835.87	0.8228
2845.23	0.799
2854.59	0.8107
2863.94	0.825
2873.3	0.8222
2882.66	0.8186
2892.01	0.8083
2901.37	0.7893
2910.73	0.7562
2920.08	0.6797
2929.44	0.6097
2938.8	0.6615
2948.16	0.6913
2957.51	0.6307
2966.87	0.5132
2976.23	0.5714
2985.58	0.6436
2994.94	0.6195
3004.3	0.5064
3013.65	0.4073
3023.01	0.5542
3032.37	0.6539
3041.72	0.7081
3051.08	0.7339
3060.44	0.7469
3069.79	0.7572
3079.15	0.767
3088.51	0.7792
3097.86	0.7956
3107.22	0.8112
3116.58	0.8266
3125.93	0.833
3135.29	0.84
3144.65	0.8488
3154	0.853
3163.36	0.856
3172.72	0.8618
3182.07	0.865
3191.43	0.8678
3200.79	0.873
3210.14	0.874
3219.5	0.8747
3228.86	0.8788
3238.21	0.879
3247.57	0.879
3256.93	0.879
3266.28	0.8817
3275.64	0.883
3285	0.8877
3294.36	0.8951
3303.71	0.899
3313.07	0.9
3322.43	0.9
3331.78	0.9
3341.14	0.9
3350.5	0.9
3359.85	0.9
3369.21	0.899
3378.57	0.897
3387.92	0.8909
3397.28	0.8804
3406.64	0.8558
3415.99	0.7706
3425.35	0.7279
3434.71	0.8011
3444.06	0.8388
3453.42	0.844
3462.78	0.8491
3472.13	0.8675
3481.49	0.871
3490.85	0.868
3500.2	0.866
3509.56	0.87
3518.92	0.868
3528.27	0.868
3537.63	0.868
3546.99	0.868
3556.34	0.8717
3565.7	0.874
3575.06	0.877
3584.41	0.8957
3593.77	0.8983
3603.13	0.8943
3612.48	0.892
3621.84	0.892
3631.2	0.891
3640.55	0.889
3649.91	0.8897
3659.27	0.892
3668.63	0.892
3677.98	0.8882
3687.34	0.8707
3696.7	0.8616
3706.05	0.878
3715.41	0.8888
3724.77	0.896
3734.12	0.9
3743.48	0.9
3752.84	0.9
3762.19	0.9
3771.55	0.899
3780.91	0.894
3790.26	0.8986
3799.62	0.897
3808.98	0.897
3818.33	0.896
3827.69	0.8986
3837.05	0.9
3846.4	0.9046
3855.76	0.9096
3865.12	0.911
3874.47	0.9104
3883.83	0.9056
3893.19	0.9014
3902.54	0.899
3911.9	0.899
3921.26	0.9
3930.61	0.902
3939.97	0.9076
3949.33	0.908
3958.68	0.908
3968.04	0.9057
3977.4	0.9004
3986.75	0.8922
3996.11	0.8882
